cs752@cs752:~/cs752-hw3-gem5$ build/X86/gem5.opt ../hw3/ece752_hw2_f2023_sample.py 
gem5 Simulator System.  https://www.gem5.org
gem5 is copyrighted software; use the --copyright option for details.

gem5 version 23.0.1.0
gem5 compiled Nov  6 2023 07:33:50
gem5 started Nov  7 2023 04:34:37
gem5 executing on cs752, pid 3412
command line: build/X86/gem5.opt ../hw3/ece752_hw2_f2023_sample.py

warn: The `CustomResource` class is deprecated. Please use an `AbstractResource` subclass instead.
Beginning simulation!
Global frequency set at 1000000000000 ticks per second
warn: No dot file generated. Please install pydot to generate the dot file and pdf.
src/mem/dram_interface.cc:690: warn: DRAM device capacity (8192 Mbytes) does not match the address range assigned (1024 Mbytes)
src/base/statistics.hh:279: warn: One of the stats is a legacy stat. Legacy stat is a stat that does not belong to any statistics::Group. Legacy stat is deprecated.
board.remote_gdb: Listening for connections on port 7000
src/sim/simulate.cc:194: info: Entering event queue @ 0.  Starting simulation...
src/arch/x86/cpuid.cc:180: warn: x86 cpuid family 0x0000: unimplemented function 13
src/sim/mem_state.cc:443: info: Increasing stack size by one page.
src/sim/syscall_emul.cc:74: warn: ignoring syscall set_robust_list(...)
src/sim/syscall_emul.cc:74: warn: ignoring syscall rseq(...)
src/sim/syscall_emul.cc:74: warn: ignoring syscall mprotect(...)
src/sim/syscall_emul.cc:74: warn: ignoring syscall mprotect(...)
src/sim/syscall_emul.cc:74: warn: ignoring syscall mprotect(...)
Reading 4 bytes:
Reading at malicious_x = 0xffffffffffffdfc8... Success: 0x54=’T’ score=2 
Reading at malicious_x = 0xffffffffffffdfc9... Success: 0x68=’h’ score=2 
Reading at malicious_x = 0xffffffffffffdfca... Success: 0x65=’e’ score=9 (second best: 0x00='?' score=2)
Reading at malicious_x = 0xffffffffffffdfcb... Unclear: 0x01=’?’ score=247 (second best: 0x03='?' score=246)
