
---------- Begin Simulation Statistics ----------
simSeconds                                   0.102132                       # Number of seconds simulated (Second)
simTicks                                 102131688411                       # Number of ticks simulated (Tick)
finalTick                                102131688411                       # Number of ticks from beginning of simulation (restored from checkpoints and never reset) (Tick)
simFreq                                  1000000000000                       # The number of ticks per simulated second ((Tick/Second))
hostSeconds                                   1637.99                       # Real time elapsed on the host (Second)
hostTickRate                                 62351884                       # The number of ticks simulated per host second (ticks/s) ((Tick/Second))
hostMemory                                    1423724                       # Number of bytes of host memory used (Byte)
simInsts                                    250000002                       # Number of instructions simulated (Count)
simOps                                      518366975                       # Number of ops (including micro ops) simulated (Count)
hostInstRate                                   152626                       # Simulator instruction rate (inst/s) ((Count/Second))
hostOpRate                                     316465                       # Simulator op (including micro ops) rate (op/s) ((Count/Second))
board.cache_hierarchy.dptw_caches.blockedCycles::no_mshrs            0                       # number of cycles access was blocked (Cycle)
board.cache_hierarchy.dptw_caches.blockedCycles::no_targets            0                       # number of cycles access was blocked (Cycle)
board.cache_hierarchy.dptw_caches.blockedCauses::no_mshrs            0                       # number of times access was blocked (Count)
board.cache_hierarchy.dptw_caches.blockedCauses::no_targets            0                       # number of times access was blocked (Count)
board.cache_hierarchy.dptw_caches.avgBlocked::no_mshrs          nan                       # average number of cycles each access was blocked ((Cycle/Count))
board.cache_hierarchy.dptw_caches.avgBlocked::no_targets          nan                       # average number of cycles each access was blocked ((Cycle/Count))
board.cache_hierarchy.dptw_caches.replacements            0                       # number of replacements (Count)
board.cache_hierarchy.dptw_caches.power_state.pwrStateResidencyTicks::UNDEFINED 102131688411                       # Cumulative time (in ticks) in various power states (Tick)
board.cache_hierarchy.dptw_caches.tags.tagsInUse            0                       # Average ticks per tags in use ((Tick/Count))
board.cache_hierarchy.dptw_caches.tags.totalRefs            0                       # Total number of references to valid blocks. (Count)
board.cache_hierarchy.dptw_caches.tags.sampledRefs            0                       # Sample count of references to valid blocks. (Count)
board.cache_hierarchy.dptw_caches.tags.avgRefs          nan                       # Average number of references to valid blocks. ((Count/Count))
board.cache_hierarchy.dptw_caches.tags.warmupTick            0                       # The tick when the warmup percentage was hit. (Tick)
board.cache_hierarchy.dptw_caches.tags.tagAccesses            0                       # Number of tag accesses (Count)
board.cache_hierarchy.dptw_caches.tags.dataAccesses            0                       # Number of data accesses (Count)
board.cache_hierarchy.dptw_caches.tags.power_state.pwrStateResidencyTicks::UNDEFINED 102131688411                       # Cumulative time (in ticks) in various power states (Tick)
board.cache_hierarchy.iptw_caches.blockedCycles::no_mshrs            0                       # number of cycles access was blocked (Cycle)
board.cache_hierarchy.iptw_caches.blockedCycles::no_targets            0                       # number of cycles access was blocked (Cycle)
board.cache_hierarchy.iptw_caches.blockedCauses::no_mshrs            0                       # number of times access was blocked (Count)
board.cache_hierarchy.iptw_caches.blockedCauses::no_targets            0                       # number of times access was blocked (Count)
board.cache_hierarchy.iptw_caches.avgBlocked::no_mshrs          nan                       # average number of cycles each access was blocked ((Cycle/Count))
board.cache_hierarchy.iptw_caches.avgBlocked::no_targets          nan                       # average number of cycles each access was blocked ((Cycle/Count))
board.cache_hierarchy.iptw_caches.replacements            0                       # number of replacements (Count)
board.cache_hierarchy.iptw_caches.power_state.pwrStateResidencyTicks::UNDEFINED 102131688411                       # Cumulative time (in ticks) in various power states (Tick)
board.cache_hierarchy.iptw_caches.tags.tagsInUse            0                       # Average ticks per tags in use ((Tick/Count))
board.cache_hierarchy.iptw_caches.tags.totalRefs            0                       # Total number of references to valid blocks. (Count)
board.cache_hierarchy.iptw_caches.tags.sampledRefs            0                       # Sample count of references to valid blocks. (Count)
board.cache_hierarchy.iptw_caches.tags.avgRefs          nan                       # Average number of references to valid blocks. ((Count/Count))
board.cache_hierarchy.iptw_caches.tags.warmupTick            0                       # The tick when the warmup percentage was hit. (Tick)
board.cache_hierarchy.iptw_caches.tags.tagAccesses            0                       # Number of tag accesses (Count)
board.cache_hierarchy.iptw_caches.tags.dataAccesses            0                       # Number of data accesses (Count)
board.cache_hierarchy.iptw_caches.tags.power_state.pwrStateResidencyTicks::UNDEFINED 102131688411                       # Cumulative time (in ticks) in various power states (Tick)
board.cache_hierarchy.l1dcaches.demandHits::processor.cores.core.data    102606179                       # number of demand (read+write) hits (Count)
board.cache_hierarchy.l1dcaches.demandHits::total    102606179                       # number of demand (read+write) hits (Count)
board.cache_hierarchy.l1dcaches.overallHits::processor.cores.core.data    102606189                       # number of overall hits (Count)
board.cache_hierarchy.l1dcaches.overallHits::total    102606189                       # number of overall hits (Count)
board.cache_hierarchy.l1dcaches.demandMisses::processor.cores.core.data      3720640                       # number of demand (read+write) misses (Count)
board.cache_hierarchy.l1dcaches.demandMisses::total      3720640                       # number of demand (read+write) misses (Count)
board.cache_hierarchy.l1dcaches.overallMisses::processor.cores.core.data      3722014                       # number of overall misses (Count)
board.cache_hierarchy.l1dcaches.overallMisses::total      3722014                       # number of overall misses (Count)
board.cache_hierarchy.l1dcaches.demandMissLatency::processor.cores.core.data  81316975956                       # number of demand (read+write) miss ticks (Tick)
board.cache_hierarchy.l1dcaches.demandMissLatency::total  81316975956                       # number of demand (read+write) miss ticks (Tick)
board.cache_hierarchy.l1dcaches.overallMissLatency::processor.cores.core.data  81316975956                       # number of overall miss ticks (Tick)
board.cache_hierarchy.l1dcaches.overallMissLatency::total  81316975956                       # number of overall miss ticks (Tick)
board.cache_hierarchy.l1dcaches.demandAccesses::processor.cores.core.data    106326819                       # number of demand (read+write) accesses (Count)
board.cache_hierarchy.l1dcaches.demandAccesses::total    106326819                       # number of demand (read+write) accesses (Count)
board.cache_hierarchy.l1dcaches.overallAccesses::processor.cores.core.data    106328203                       # number of overall (read+write) accesses (Count)
board.cache_hierarchy.l1dcaches.overallAccesses::total    106328203                       # number of overall (read+write) accesses (Count)
board.cache_hierarchy.l1dcaches.demandMissRate::processor.cores.core.data     0.034992                       # miss rate for demand accesses (Ratio)
board.cache_hierarchy.l1dcaches.demandMissRate::total     0.034992                       # miss rate for demand accesses (Ratio)
board.cache_hierarchy.l1dcaches.overallMissRate::processor.cores.core.data     0.035005                       # miss rate for overall accesses (Ratio)
board.cache_hierarchy.l1dcaches.overallMissRate::total     0.035005                       # miss rate for overall accesses (Ratio)
board.cache_hierarchy.l1dcaches.demandAvgMissLatency::processor.cores.core.data 21855.642028                       # average overall miss latency in ticks ((Tick/Count))
board.cache_hierarchy.l1dcaches.demandAvgMissLatency::total 21855.642028                       # average overall miss latency in ticks ((Tick/Count))
board.cache_hierarchy.l1dcaches.overallAvgMissLatency::processor.cores.core.data 21847.573909                       # average overall miss latency ((Tick/Count))
board.cache_hierarchy.l1dcaches.overallAvgMissLatency::total 21847.573909                       # average overall miss latency ((Tick/Count))
board.cache_hierarchy.l1dcaches.blockedCycles::no_mshrs        14222                       # number of cycles access was blocked (Cycle)
board.cache_hierarchy.l1dcaches.blockedCycles::no_targets        10070                       # number of cycles access was blocked (Cycle)
board.cache_hierarchy.l1dcaches.blockedCauses::no_mshrs          889                       # number of times access was blocked (Count)
board.cache_hierarchy.l1dcaches.blockedCauses::no_targets           76                       # number of times access was blocked (Count)
board.cache_hierarchy.l1dcaches.avgBlocked::no_mshrs    15.997750                       # average number of cycles each access was blocked ((Cycle/Count))
board.cache_hierarchy.l1dcaches.avgBlocked::no_targets   132.500000                       # average number of cycles each access was blocked ((Cycle/Count))
board.cache_hierarchy.l1dcaches.writebacks::writebacks      1308916                       # number of writebacks (Count)
board.cache_hierarchy.l1dcaches.writebacks::total      1308916                       # number of writebacks (Count)
board.cache_hierarchy.l1dcaches.demandMshrHits::processor.cores.core.data      1347828                       # number of demand (read+write) MSHR hits (Count)
board.cache_hierarchy.l1dcaches.demandMshrHits::total      1347828                       # number of demand (read+write) MSHR hits (Count)
board.cache_hierarchy.l1dcaches.overallMshrHits::processor.cores.core.data      1347828                       # number of overall MSHR hits (Count)
board.cache_hierarchy.l1dcaches.overallMshrHits::total      1347828                       # number of overall MSHR hits (Count)
board.cache_hierarchy.l1dcaches.demandMshrMisses::processor.cores.core.data      2372812                       # number of demand (read+write) MSHR misses (Count)
board.cache_hierarchy.l1dcaches.demandMshrMisses::total      2372812                       # number of demand (read+write) MSHR misses (Count)
board.cache_hierarchy.l1dcaches.overallMshrMisses::cache_hierarchy.l1dcaches.prefetcher       311387                       # number of overall MSHR misses (Count)
board.cache_hierarchy.l1dcaches.overallMshrMisses::processor.cores.core.data      2374157                       # number of overall MSHR misses (Count)
board.cache_hierarchy.l1dcaches.overallMshrMisses::total      2685544                       # number of overall MSHR misses (Count)
board.cache_hierarchy.l1dcaches.demandMshrMissLatency::processor.cores.core.data  48462871950                       # number of demand (read+write) MSHR miss ticks (Tick)
board.cache_hierarchy.l1dcaches.demandMshrMissLatency::total  48462871950                       # number of demand (read+write) MSHR miss ticks (Tick)
board.cache_hierarchy.l1dcaches.overallMshrMissLatency::cache_hierarchy.l1dcaches.prefetcher   8733405707                       # number of overall MSHR miss ticks (Tick)
board.cache_hierarchy.l1dcaches.overallMshrMissLatency::processor.cores.core.data  48596391630                       # number of overall MSHR miss ticks (Tick)
board.cache_hierarchy.l1dcaches.overallMshrMissLatency::total  57329797337                       # number of overall MSHR miss ticks (Tick)
board.cache_hierarchy.l1dcaches.demandMshrMissRate::processor.cores.core.data     0.022316                       # mshr miss ratio for demand accesses (Ratio)
board.cache_hierarchy.l1dcaches.demandMshrMissRate::total     0.022316                       # mshr miss ratio for demand accesses (Ratio)
board.cache_hierarchy.l1dcaches.overallMshrMissRate::cache_hierarchy.l1dcaches.prefetcher          inf                       # mshr miss ratio for overall accesses (Ratio)
board.cache_hierarchy.l1dcaches.overallMshrMissRate::processor.cores.core.data     0.022329                       # mshr miss ratio for overall accesses (Ratio)
board.cache_hierarchy.l1dcaches.overallMshrMissRate::total     0.025257                       # mshr miss ratio for overall accesses (Ratio)
board.cache_hierarchy.l1dcaches.demandAvgMshrMissLatency::processor.cores.core.data 20424.235864                       # average overall mshr miss latency ((Tick/Count))
board.cache_hierarchy.l1dcaches.demandAvgMshrMissLatency::total 20424.235864                       # average overall mshr miss latency ((Tick/Count))
board.cache_hierarchy.l1dcaches.overallAvgMshrMissLatency::cache_hierarchy.l1dcaches.prefetcher 28046.789709                       # average overall mshr miss latency ((Tick/Count))
board.cache_hierarchy.l1dcaches.overallAvgMshrMissLatency::processor.cores.core.data 20468.903965                       # average overall mshr miss latency ((Tick/Count))
board.cache_hierarchy.l1dcaches.overallAvgMshrMissLatency::total 21347.554662                       # average overall mshr miss latency ((Tick/Count))
board.cache_hierarchy.l1dcaches.replacements      2684946                       # number of replacements (Count)
board.cache_hierarchy.l1dcaches.HardPFReq.mshrMisses::cache_hierarchy.l1dcaches.prefetcher       311387                       # number of HardPFReq MSHR misses (Count)
board.cache_hierarchy.l1dcaches.HardPFReq.mshrMisses::total       311387                       # number of HardPFReq MSHR misses (Count)
board.cache_hierarchy.l1dcaches.HardPFReq.mshrMissLatency::cache_hierarchy.l1dcaches.prefetcher   8733405707                       # number of HardPFReq MSHR miss ticks (Tick)
board.cache_hierarchy.l1dcaches.HardPFReq.mshrMissLatency::total   8733405707                       # number of HardPFReq MSHR miss ticks (Tick)
board.cache_hierarchy.l1dcaches.HardPFReq.mshrMissRate::cache_hierarchy.l1dcaches.prefetcher          inf                       # mshr miss rate for HardPFReq accesses (Ratio)
board.cache_hierarchy.l1dcaches.HardPFReq.mshrMissRate::total          inf                       # mshr miss rate for HardPFReq accesses (Ratio)
board.cache_hierarchy.l1dcaches.HardPFReq.avgMshrMissLatency::cache_hierarchy.l1dcaches.prefetcher 28046.789709                       # average HardPFReq mshr miss latency ((Tick/Count))
board.cache_hierarchy.l1dcaches.HardPFReq.avgMshrMissLatency::total 28046.789709                       # average HardPFReq mshr miss latency ((Tick/Count))
board.cache_hierarchy.l1dcaches.LockedRMWReadReq.hits::processor.cores.core.data        12028                       # number of LockedRMWReadReq hits (Count)
board.cache_hierarchy.l1dcaches.LockedRMWReadReq.hits::total        12028                       # number of LockedRMWReadReq hits (Count)
board.cache_hierarchy.l1dcaches.LockedRMWReadReq.misses::processor.cores.core.data           22                       # number of LockedRMWReadReq misses (Count)
board.cache_hierarchy.l1dcaches.LockedRMWReadReq.misses::total           22                       # number of LockedRMWReadReq misses (Count)
board.cache_hierarchy.l1dcaches.LockedRMWReadReq.missLatency::processor.cores.core.data       102564                       # number of LockedRMWReadReq miss ticks (Tick)
board.cache_hierarchy.l1dcaches.LockedRMWReadReq.missLatency::total       102564                       # number of LockedRMWReadReq miss ticks (Tick)
board.cache_hierarchy.l1dcaches.LockedRMWReadReq.accesses::processor.cores.core.data        12050                       # number of LockedRMWReadReq accesses(hits+misses) (Count)
board.cache_hierarchy.l1dcaches.LockedRMWReadReq.accesses::total        12050                       # number of LockedRMWReadReq accesses(hits+misses) (Count)
board.cache_hierarchy.l1dcaches.LockedRMWReadReq.missRate::processor.cores.core.data     0.001826                       # miss rate for LockedRMWReadReq accesses (Ratio)
board.cache_hierarchy.l1dcaches.LockedRMWReadReq.missRate::total     0.001826                       # miss rate for LockedRMWReadReq accesses (Ratio)
board.cache_hierarchy.l1dcaches.LockedRMWReadReq.avgMissLatency::processor.cores.core.data         4662                       # average LockedRMWReadReq miss latency ((Tick/Count))
board.cache_hierarchy.l1dcaches.LockedRMWReadReq.avgMissLatency::total         4662                       # average LockedRMWReadReq miss latency ((Tick/Count))
board.cache_hierarchy.l1dcaches.LockedRMWReadReq.mshrMisses::processor.cores.core.data           22                       # number of LockedRMWReadReq MSHR misses (Count)
board.cache_hierarchy.l1dcaches.LockedRMWReadReq.mshrMisses::total           22                       # number of LockedRMWReadReq MSHR misses (Count)
board.cache_hierarchy.l1dcaches.LockedRMWReadReq.mshrMissLatency::processor.cores.core.data     20395917                       # number of LockedRMWReadReq MSHR miss ticks (Tick)
board.cache_hierarchy.l1dcaches.LockedRMWReadReq.mshrMissLatency::total     20395917                       # number of LockedRMWReadReq MSHR miss ticks (Tick)
board.cache_hierarchy.l1dcaches.LockedRMWReadReq.mshrMissRate::processor.cores.core.data     0.001826                       # mshr miss rate for LockedRMWReadReq accesses (Ratio)
board.cache_hierarchy.l1dcaches.LockedRMWReadReq.mshrMissRate::total     0.001826                       # mshr miss rate for LockedRMWReadReq accesses (Ratio)
board.cache_hierarchy.l1dcaches.LockedRMWReadReq.avgMshrMissLatency::processor.cores.core.data 927087.136364                       # average LockedRMWReadReq mshr miss latency ((Tick/Count))
board.cache_hierarchy.l1dcaches.LockedRMWReadReq.avgMshrMissLatency::total 927087.136364                       # average LockedRMWReadReq mshr miss latency ((Tick/Count))
board.cache_hierarchy.l1dcaches.LockedRMWWriteReq.hits::processor.cores.core.data        12050                       # number of LockedRMWWriteReq hits (Count)
board.cache_hierarchy.l1dcaches.LockedRMWWriteReq.hits::total        12050                       # number of LockedRMWWriteReq hits (Count)
board.cache_hierarchy.l1dcaches.LockedRMWWriteReq.accesses::processor.cores.core.data        12050                       # number of LockedRMWWriteReq accesses(hits+misses) (Count)
board.cache_hierarchy.l1dcaches.LockedRMWWriteReq.accesses::total        12050                       # number of LockedRMWWriteReq accesses(hits+misses) (Count)
board.cache_hierarchy.l1dcaches.ReadReq.hits::processor.cores.core.data     59944184                       # number of ReadReq hits (Count)
board.cache_hierarchy.l1dcaches.ReadReq.hits::total     59944184                       # number of ReadReq hits (Count)
board.cache_hierarchy.l1dcaches.ReadReq.misses::processor.cores.core.data      3196536                       # number of ReadReq misses (Count)
board.cache_hierarchy.l1dcaches.ReadReq.misses::total      3196536                       # number of ReadReq misses (Count)
board.cache_hierarchy.l1dcaches.ReadReq.missLatency::processor.cores.core.data  73034237322                       # number of ReadReq miss ticks (Tick)
board.cache_hierarchy.l1dcaches.ReadReq.missLatency::total  73034237322                       # number of ReadReq miss ticks (Tick)
board.cache_hierarchy.l1dcaches.ReadReq.accesses::processor.cores.core.data     63140720                       # number of ReadReq accesses(hits+misses) (Count)
board.cache_hierarchy.l1dcaches.ReadReq.accesses::total     63140720                       # number of ReadReq accesses(hits+misses) (Count)
board.cache_hierarchy.l1dcaches.ReadReq.missRate::processor.cores.core.data     0.050626                       # miss rate for ReadReq accesses (Ratio)
board.cache_hierarchy.l1dcaches.ReadReq.missRate::total     0.050626                       # miss rate for ReadReq accesses (Ratio)
board.cache_hierarchy.l1dcaches.ReadReq.avgMissLatency::processor.cores.core.data 22847.932050                       # average ReadReq miss latency ((Tick/Count))
board.cache_hierarchy.l1dcaches.ReadReq.avgMissLatency::total 22847.932050                       # average ReadReq miss latency ((Tick/Count))
board.cache_hierarchy.l1dcaches.ReadReq.mshrHits::processor.cores.core.data      1330047                       # number of ReadReq MSHR hits (Count)
board.cache_hierarchy.l1dcaches.ReadReq.mshrHits::total      1330047                       # number of ReadReq MSHR hits (Count)
board.cache_hierarchy.l1dcaches.ReadReq.mshrMisses::processor.cores.core.data      1866489                       # number of ReadReq MSHR misses (Count)
board.cache_hierarchy.l1dcaches.ReadReq.mshrMisses::total      1866489                       # number of ReadReq MSHR misses (Count)
board.cache_hierarchy.l1dcaches.ReadReq.mshrMissLatency::processor.cores.core.data  40745139408                       # number of ReadReq MSHR miss ticks (Tick)
board.cache_hierarchy.l1dcaches.ReadReq.mshrMissLatency::total  40745139408                       # number of ReadReq MSHR miss ticks (Tick)
board.cache_hierarchy.l1dcaches.ReadReq.mshrMissRate::processor.cores.core.data     0.029561                       # mshr miss rate for ReadReq accesses (Ratio)
board.cache_hierarchy.l1dcaches.ReadReq.mshrMissRate::total     0.029561                       # mshr miss rate for ReadReq accesses (Ratio)
board.cache_hierarchy.l1dcaches.ReadReq.avgMshrMissLatency::processor.cores.core.data 21829.830986                       # average ReadReq mshr miss latency ((Tick/Count))
board.cache_hierarchy.l1dcaches.ReadReq.avgMshrMissLatency::total 21829.830986                       # average ReadReq mshr miss latency ((Tick/Count))
board.cache_hierarchy.l1dcaches.SoftPFReq.hits::processor.cores.core.data           10                       # number of SoftPFReq hits (Count)
board.cache_hierarchy.l1dcaches.SoftPFReq.hits::total           10                       # number of SoftPFReq hits (Count)
board.cache_hierarchy.l1dcaches.SoftPFReq.misses::processor.cores.core.data         1374                       # number of SoftPFReq misses (Count)
board.cache_hierarchy.l1dcaches.SoftPFReq.misses::total         1374                       # number of SoftPFReq misses (Count)
board.cache_hierarchy.l1dcaches.SoftPFReq.accesses::processor.cores.core.data         1384                       # number of SoftPFReq accesses(hits+misses) (Count)
board.cache_hierarchy.l1dcaches.SoftPFReq.accesses::total         1384                       # number of SoftPFReq accesses(hits+misses) (Count)
board.cache_hierarchy.l1dcaches.SoftPFReq.missRate::processor.cores.core.data     0.992775                       # miss rate for SoftPFReq accesses (Ratio)
board.cache_hierarchy.l1dcaches.SoftPFReq.missRate::total     0.992775                       # miss rate for SoftPFReq accesses (Ratio)
board.cache_hierarchy.l1dcaches.SoftPFReq.mshrMisses::processor.cores.core.data         1345                       # number of SoftPFReq MSHR misses (Count)
board.cache_hierarchy.l1dcaches.SoftPFReq.mshrMisses::total         1345                       # number of SoftPFReq MSHR misses (Count)
board.cache_hierarchy.l1dcaches.SoftPFReq.mshrMissLatency::processor.cores.core.data    133519680                       # number of SoftPFReq MSHR miss ticks (Tick)
board.cache_hierarchy.l1dcaches.SoftPFReq.mshrMissLatency::total    133519680                       # number of SoftPFReq MSHR miss ticks (Tick)
board.cache_hierarchy.l1dcaches.SoftPFReq.mshrMissRate::processor.cores.core.data     0.971821                       # mshr miss rate for SoftPFReq accesses (Ratio)
board.cache_hierarchy.l1dcaches.SoftPFReq.mshrMissRate::total     0.971821                       # mshr miss rate for SoftPFReq accesses (Ratio)
board.cache_hierarchy.l1dcaches.SoftPFReq.avgMshrMissLatency::processor.cores.core.data 99271.137546                       # average SoftPFReq mshr miss latency ((Tick/Count))
board.cache_hierarchy.l1dcaches.SoftPFReq.avgMshrMissLatency::total 99271.137546                       # average SoftPFReq mshr miss latency ((Tick/Count))
board.cache_hierarchy.l1dcaches.WriteReq.hits::processor.cores.core.data     42661995                       # number of WriteReq hits (Count)
board.cache_hierarchy.l1dcaches.WriteReq.hits::total     42661995                       # number of WriteReq hits (Count)
board.cache_hierarchy.l1dcaches.WriteReq.misses::processor.cores.core.data       524104                       # number of WriteReq misses (Count)
board.cache_hierarchy.l1dcaches.WriteReq.misses::total       524104                       # number of WriteReq misses (Count)
board.cache_hierarchy.l1dcaches.WriteReq.missLatency::processor.cores.core.data   8282738634                       # number of WriteReq miss ticks (Tick)
board.cache_hierarchy.l1dcaches.WriteReq.missLatency::total   8282738634                       # number of WriteReq miss ticks (Tick)
board.cache_hierarchy.l1dcaches.WriteReq.accesses::processor.cores.core.data     43186099                       # number of WriteReq accesses(hits+misses) (Count)
board.cache_hierarchy.l1dcaches.WriteReq.accesses::total     43186099                       # number of WriteReq accesses(hits+misses) (Count)
board.cache_hierarchy.l1dcaches.WriteReq.missRate::processor.cores.core.data     0.012136                       # miss rate for WriteReq accesses (Ratio)
board.cache_hierarchy.l1dcaches.WriteReq.missRate::total     0.012136                       # miss rate for WriteReq accesses (Ratio)
board.cache_hierarchy.l1dcaches.WriteReq.avgMissLatency::processor.cores.core.data 15803.616523                       # average WriteReq miss latency ((Tick/Count))
board.cache_hierarchy.l1dcaches.WriteReq.avgMissLatency::total 15803.616523                       # average WriteReq miss latency ((Tick/Count))
board.cache_hierarchy.l1dcaches.WriteReq.mshrHits::processor.cores.core.data        17781                       # number of WriteReq MSHR hits (Count)
board.cache_hierarchy.l1dcaches.WriteReq.mshrHits::total        17781                       # number of WriteReq MSHR hits (Count)
board.cache_hierarchy.l1dcaches.WriteReq.mshrMisses::processor.cores.core.data       506323                       # number of WriteReq MSHR misses (Count)
board.cache_hierarchy.l1dcaches.WriteReq.mshrMisses::total       506323                       # number of WriteReq MSHR misses (Count)
board.cache_hierarchy.l1dcaches.WriteReq.mshrMissLatency::processor.cores.core.data   7717732542                       # number of WriteReq MSHR miss ticks (Tick)
board.cache_hierarchy.l1dcaches.WriteReq.mshrMissLatency::total   7717732542                       # number of WriteReq MSHR miss ticks (Tick)
board.cache_hierarchy.l1dcaches.WriteReq.mshrMissRate::processor.cores.core.data     0.011724                       # mshr miss rate for WriteReq accesses (Ratio)
board.cache_hierarchy.l1dcaches.WriteReq.mshrMissRate::total     0.011724                       # mshr miss rate for WriteReq accesses (Ratio)
board.cache_hierarchy.l1dcaches.WriteReq.avgMshrMissLatency::processor.cores.core.data 15242.705826                       # average WriteReq mshr miss latency ((Tick/Count))
board.cache_hierarchy.l1dcaches.WriteReq.avgMshrMissLatency::total 15242.705826                       # average WriteReq mshr miss latency ((Tick/Count))
board.cache_hierarchy.l1dcaches.power_state.pwrStateResidencyTicks::UNDEFINED 102131688411                       # Cumulative time (in ticks) in various power states (Tick)
board.cache_hierarchy.l1dcaches.prefetcher.demandMshrMisses      2372812                       # demands not covered by prefetchs (Count)
board.cache_hierarchy.l1dcaches.prefetcher.pfIssued       611333                       # number of hwpf issued (Count)
board.cache_hierarchy.l1dcaches.prefetcher.pfUnused        33328                       # number of HardPF blocks evicted w/o reference (Count)
board.cache_hierarchy.l1dcaches.prefetcher.pfUseful       221488                       # number of useful prefetch (Count)
board.cache_hierarchy.l1dcaches.prefetcher.pfUsefulButMiss            0                       # number of hit on prefetch but cache block is not in an usable state (Count)
board.cache_hierarchy.l1dcaches.prefetcher.accuracy     0.362303                       # accuracy of the prefetcher (Count)
board.cache_hierarchy.l1dcaches.prefetcher.coverage     0.085375                       # coverage brought by this prefetcher (Count)
board.cache_hierarchy.l1dcaches.prefetcher.pfHitInCache       127524                       # number of prefetches hitting in cache (Count)
board.cache_hierarchy.l1dcaches.prefetcher.pfHitInMSHR       172422                       # number of prefetches hitting in a MSHR (Count)
board.cache_hierarchy.l1dcaches.prefetcher.pfHitInWB            0                       # number of prefetches hit in the Write Buffer (Count)
board.cache_hierarchy.l1dcaches.prefetcher.pfLate       299946                       # number of late prefetches (hitting in cache, MSHR or WB) (Count)
board.cache_hierarchy.l1dcaches.prefetcher.pfIdentified       876877                       # number of prefetch candidates identified (Count)
board.cache_hierarchy.l1dcaches.prefetcher.pfBufferHit       192231                       # number of redundant prefetches already in prefetch queue (Count)
board.cache_hierarchy.l1dcaches.prefetcher.pfInCache            0                       # number of redundant prefetches already in cache/mshr dropped (Count)
board.cache_hierarchy.l1dcaches.prefetcher.pfRemovedDemand        18897                       # number of prefetches dropped due to a demand for the same address (Count)
board.cache_hierarchy.l1dcaches.prefetcher.pfRemovedFull            0                       # number of prefetches dropped due to prefetch queue size (Count)
board.cache_hierarchy.l1dcaches.prefetcher.pfSpanPage        72431                       # number of prefetches that crossed the page (Count)
board.cache_hierarchy.l1dcaches.prefetcher.pfUsefulSpanPage            0                       # number of prefetches that is useful and crossed the page (Count)
board.cache_hierarchy.l1dcaches.prefetcher.power_state.pwrStateResidencyTicks::UNDEFINED 102131688411                       # Cumulative time (in ticks) in various power states (Tick)
board.cache_hierarchy.l1dcaches.tags.tagsInUse   511.885123                       # Average ticks per tags in use ((Tick/Count))
board.cache_hierarchy.l1dcaches.tags.totalRefs    105315851                       # Total number of references to valid blocks. (Count)
board.cache_hierarchy.l1dcaches.tags.sampledRefs      2685458                       # Sample count of references to valid blocks. (Count)
board.cache_hierarchy.l1dcaches.tags.avgRefs    39.217091                       # Average number of references to valid blocks. ((Count/Count))
board.cache_hierarchy.l1dcaches.tags.warmupTick       133200                       # The tick when the warmup percentage was hit. (Tick)
board.cache_hierarchy.l1dcaches.tags.occupancies::cache_hierarchy.l1dcaches.prefetcher    46.351754                       # Average occupied blocks per tick, per requestor ((Count/Tick))
board.cache_hierarchy.l1dcaches.tags.occupancies::processor.cores.core.data   465.533369                       # Average occupied blocks per tick, per requestor ((Count/Tick))
board.cache_hierarchy.l1dcaches.tags.avgOccs::cache_hierarchy.l1dcaches.prefetcher     0.090531                       # Average percentage of cache occupancy ((Ratio/Tick))
board.cache_hierarchy.l1dcaches.tags.avgOccs::processor.cores.core.data     0.909245                       # Average percentage of cache occupancy ((Ratio/Tick))
board.cache_hierarchy.l1dcaches.tags.avgOccs::total     0.999776                       # Average percentage of cache occupancy ((Ratio/Tick))
board.cache_hierarchy.l1dcaches.tags.occupanciesTaskId::1022           17                       # Occupied blocks per task id (Count)
board.cache_hierarchy.l1dcaches.tags.occupanciesTaskId::1024          495                       # Occupied blocks per task id (Count)
board.cache_hierarchy.l1dcaches.tags.ageTaskId_1022::1            5                       # Occupied blocks per task id, per block age (Count)
board.cache_hierarchy.l1dcaches.tags.ageTaskId_1022::2           12                       # Occupied blocks per task id, per block age (Count)
board.cache_hierarchy.l1dcaches.tags.ageTaskId_1024::0           48                       # Occupied blocks per task id, per block age (Count)
board.cache_hierarchy.l1dcaches.tags.ageTaskId_1024::1          290                       # Occupied blocks per task id, per block age (Count)
board.cache_hierarchy.l1dcaches.tags.ageTaskId_1024::2          157                       # Occupied blocks per task id, per block age (Count)
board.cache_hierarchy.l1dcaches.tags.ratioOccsTaskId::1022     0.033203                       # Ratio of occupied blocks and all blocks, per task id (Ratio)
board.cache_hierarchy.l1dcaches.tags.ratioOccsTaskId::1024     0.966797                       # Ratio of occupied blocks and all blocks, per task id (Ratio)
board.cache_hierarchy.l1dcaches.tags.tagAccesses    853503882                       # Number of tag accesses (Count)
board.cache_hierarchy.l1dcaches.tags.dataAccesses    853503882                       # Number of data accesses (Count)
board.cache_hierarchy.l1dcaches.tags.power_state.pwrStateResidencyTicks::UNDEFINED 102131688411                       # Cumulative time (in ticks) in various power states (Tick)
board.cache_hierarchy.l1icaches.demandHits::processor.cores.core.inst     65181222                       # number of demand (read+write) hits (Count)
board.cache_hierarchy.l1icaches.demandHits::total     65181222                       # number of demand (read+write) hits (Count)
board.cache_hierarchy.l1icaches.overallHits::processor.cores.core.inst     65181222                       # number of overall hits (Count)
board.cache_hierarchy.l1icaches.overallHits::total     65181222                       # number of overall hits (Count)
board.cache_hierarchy.l1icaches.demandMisses::processor.cores.core.inst      1644134                       # number of demand (read+write) misses (Count)
board.cache_hierarchy.l1icaches.demandMisses::total      1644134                       # number of demand (read+write) misses (Count)
board.cache_hierarchy.l1icaches.overallMisses::processor.cores.core.inst      1644134                       # number of overall misses (Count)
board.cache_hierarchy.l1icaches.overallMisses::total      1644134                       # number of overall misses (Count)
board.cache_hierarchy.l1icaches.demandMissLatency::processor.cores.core.inst  14412570336                       # number of demand (read+write) miss ticks (Tick)
board.cache_hierarchy.l1icaches.demandMissLatency::total  14412570336                       # number of demand (read+write) miss ticks (Tick)
board.cache_hierarchy.l1icaches.overallMissLatency::processor.cores.core.inst  14412570336                       # number of overall miss ticks (Tick)
board.cache_hierarchy.l1icaches.overallMissLatency::total  14412570336                       # number of overall miss ticks (Tick)
board.cache_hierarchy.l1icaches.demandAccesses::processor.cores.core.inst     66825356                       # number of demand (read+write) accesses (Count)
board.cache_hierarchy.l1icaches.demandAccesses::total     66825356                       # number of demand (read+write) accesses (Count)
board.cache_hierarchy.l1icaches.overallAccesses::processor.cores.core.inst     66825356                       # number of overall (read+write) accesses (Count)
board.cache_hierarchy.l1icaches.overallAccesses::total     66825356                       # number of overall (read+write) accesses (Count)
board.cache_hierarchy.l1icaches.demandMissRate::processor.cores.core.inst     0.024603                       # miss rate for demand accesses (Ratio)
board.cache_hierarchy.l1icaches.demandMissRate::total     0.024603                       # miss rate for demand accesses (Ratio)
board.cache_hierarchy.l1icaches.overallMissRate::processor.cores.core.inst     0.024603                       # miss rate for overall accesses (Ratio)
board.cache_hierarchy.l1icaches.overallMissRate::total     0.024603                       # miss rate for overall accesses (Ratio)
board.cache_hierarchy.l1icaches.demandAvgMissLatency::processor.cores.core.inst  8766.055769                       # average overall miss latency in ticks ((Tick/Count))
board.cache_hierarchy.l1icaches.demandAvgMissLatency::total  8766.055769                       # average overall miss latency in ticks ((Tick/Count))
board.cache_hierarchy.l1icaches.overallAvgMissLatency::processor.cores.core.inst  8766.055769                       # average overall miss latency ((Tick/Count))
board.cache_hierarchy.l1icaches.overallAvgMissLatency::total  8766.055769                       # average overall miss latency ((Tick/Count))
board.cache_hierarchy.l1icaches.blockedCycles::no_mshrs            0                       # number of cycles access was blocked (Cycle)
board.cache_hierarchy.l1icaches.blockedCycles::no_targets            0                       # number of cycles access was blocked (Cycle)
board.cache_hierarchy.l1icaches.blockedCauses::no_mshrs            0                       # number of times access was blocked (Count)
board.cache_hierarchy.l1icaches.blockedCauses::no_targets            0                       # number of times access was blocked (Count)
board.cache_hierarchy.l1icaches.avgBlocked::no_mshrs          nan                       # average number of cycles each access was blocked ((Cycle/Count))
board.cache_hierarchy.l1icaches.avgBlocked::no_targets          nan                       # average number of cycles each access was blocked ((Cycle/Count))
board.cache_hierarchy.l1icaches.writebacks::writebacks      1549831                       # number of writebacks (Count)
board.cache_hierarchy.l1icaches.writebacks::total      1549831                       # number of writebacks (Count)
board.cache_hierarchy.l1icaches.demandMshrHits::processor.cores.core.inst        93686                       # number of demand (read+write) MSHR hits (Count)
board.cache_hierarchy.l1icaches.demandMshrHits::total        93686                       # number of demand (read+write) MSHR hits (Count)
board.cache_hierarchy.l1icaches.overallMshrHits::processor.cores.core.inst        93686                       # number of overall MSHR hits (Count)
board.cache_hierarchy.l1icaches.overallMshrHits::total        93686                       # number of overall MSHR hits (Count)
board.cache_hierarchy.l1icaches.demandMshrMisses::processor.cores.core.inst      1550448                       # number of demand (read+write) MSHR misses (Count)
board.cache_hierarchy.l1icaches.demandMshrMisses::total      1550448                       # number of demand (read+write) MSHR misses (Count)
board.cache_hierarchy.l1icaches.overallMshrMisses::processor.cores.core.inst      1550448                       # number of overall MSHR misses (Count)
board.cache_hierarchy.l1icaches.overallMshrMisses::total      1550448                       # number of overall MSHR misses (Count)
board.cache_hierarchy.l1icaches.demandMshrMissLatency::processor.cores.core.inst  12507915231                       # number of demand (read+write) MSHR miss ticks (Tick)
board.cache_hierarchy.l1icaches.demandMshrMissLatency::total  12507915231                       # number of demand (read+write) MSHR miss ticks (Tick)
board.cache_hierarchy.l1icaches.overallMshrMissLatency::processor.cores.core.inst  12507915231                       # number of overall MSHR miss ticks (Tick)
board.cache_hierarchy.l1icaches.overallMshrMissLatency::total  12507915231                       # number of overall MSHR miss ticks (Tick)
board.cache_hierarchy.l1icaches.demandMshrMissRate::processor.cores.core.inst     0.023201                       # mshr miss ratio for demand accesses (Ratio)
board.cache_hierarchy.l1icaches.demandMshrMissRate::total     0.023201                       # mshr miss ratio for demand accesses (Ratio)
board.cache_hierarchy.l1icaches.overallMshrMissRate::processor.cores.core.inst     0.023201                       # mshr miss ratio for overall accesses (Ratio)
board.cache_hierarchy.l1icaches.overallMshrMissRate::total     0.023201                       # mshr miss ratio for overall accesses (Ratio)
board.cache_hierarchy.l1icaches.demandAvgMshrMissLatency::processor.cores.core.inst  8067.291022                       # average overall mshr miss latency ((Tick/Count))
board.cache_hierarchy.l1icaches.demandAvgMshrMissLatency::total  8067.291022                       # average overall mshr miss latency ((Tick/Count))
board.cache_hierarchy.l1icaches.overallAvgMshrMissLatency::processor.cores.core.inst  8067.291022                       # average overall mshr miss latency ((Tick/Count))
board.cache_hierarchy.l1icaches.overallAvgMshrMissLatency::total  8067.291022                       # average overall mshr miss latency ((Tick/Count))
board.cache_hierarchy.l1icaches.replacements      1549831                       # number of replacements (Count)
board.cache_hierarchy.l1icaches.ReadReq.hits::processor.cores.core.inst     65181222                       # number of ReadReq hits (Count)
board.cache_hierarchy.l1icaches.ReadReq.hits::total     65181222                       # number of ReadReq hits (Count)
board.cache_hierarchy.l1icaches.ReadReq.misses::processor.cores.core.inst      1644134                       # number of ReadReq misses (Count)
board.cache_hierarchy.l1icaches.ReadReq.misses::total      1644134                       # number of ReadReq misses (Count)
board.cache_hierarchy.l1icaches.ReadReq.missLatency::processor.cores.core.inst  14412570336                       # number of ReadReq miss ticks (Tick)
board.cache_hierarchy.l1icaches.ReadReq.missLatency::total  14412570336                       # number of ReadReq miss ticks (Tick)
board.cache_hierarchy.l1icaches.ReadReq.accesses::processor.cores.core.inst     66825356                       # number of ReadReq accesses(hits+misses) (Count)
board.cache_hierarchy.l1icaches.ReadReq.accesses::total     66825356                       # number of ReadReq accesses(hits+misses) (Count)
board.cache_hierarchy.l1icaches.ReadReq.missRate::processor.cores.core.inst     0.024603                       # miss rate for ReadReq accesses (Ratio)
board.cache_hierarchy.l1icaches.ReadReq.missRate::total     0.024603                       # miss rate for ReadReq accesses (Ratio)
board.cache_hierarchy.l1icaches.ReadReq.avgMissLatency::processor.cores.core.inst  8766.055769                       # average ReadReq miss latency ((Tick/Count))
board.cache_hierarchy.l1icaches.ReadReq.avgMissLatency::total  8766.055769                       # average ReadReq miss latency ((Tick/Count))
board.cache_hierarchy.l1icaches.ReadReq.mshrHits::processor.cores.core.inst        93686                       # number of ReadReq MSHR hits (Count)
board.cache_hierarchy.l1icaches.ReadReq.mshrHits::total        93686                       # number of ReadReq MSHR hits (Count)
board.cache_hierarchy.l1icaches.ReadReq.mshrMisses::processor.cores.core.inst      1550448                       # number of ReadReq MSHR misses (Count)
board.cache_hierarchy.l1icaches.ReadReq.mshrMisses::total      1550448                       # number of ReadReq MSHR misses (Count)
board.cache_hierarchy.l1icaches.ReadReq.mshrMissLatency::processor.cores.core.inst  12507915231                       # number of ReadReq MSHR miss ticks (Tick)
board.cache_hierarchy.l1icaches.ReadReq.mshrMissLatency::total  12507915231                       # number of ReadReq MSHR miss ticks (Tick)
board.cache_hierarchy.l1icaches.ReadReq.mshrMissRate::processor.cores.core.inst     0.023201                       # mshr miss rate for ReadReq accesses (Ratio)
board.cache_hierarchy.l1icaches.ReadReq.mshrMissRate::total     0.023201                       # mshr miss rate for ReadReq accesses (Ratio)
board.cache_hierarchy.l1icaches.ReadReq.avgMshrMissLatency::processor.cores.core.inst  8067.291022                       # average ReadReq mshr miss latency ((Tick/Count))
board.cache_hierarchy.l1icaches.ReadReq.avgMshrMissLatency::total  8067.291022                       # average ReadReq mshr miss latency ((Tick/Count))
board.cache_hierarchy.l1icaches.power_state.pwrStateResidencyTicks::UNDEFINED 102131688411                       # Cumulative time (in ticks) in various power states (Tick)
board.cache_hierarchy.l1icaches.prefetcher.demandMshrMisses      1550448                       # demands not covered by prefetchs (Count)
board.cache_hierarchy.l1icaches.prefetcher.pfIssued            0                       # number of hwpf issued (Count)
board.cache_hierarchy.l1icaches.prefetcher.pfUseful            0                       # number of useful prefetch (Count)
board.cache_hierarchy.l1icaches.prefetcher.pfUsefulButMiss            0                       # number of hit on prefetch but cache block is not in an usable state (Count)
board.cache_hierarchy.l1icaches.prefetcher.accuracy          nan                       # accuracy of the prefetcher (Count)
board.cache_hierarchy.l1icaches.prefetcher.coverage            0                       # coverage brought by this prefetcher (Count)
board.cache_hierarchy.l1icaches.prefetcher.pfHitInCache            0                       # number of prefetches hitting in cache (Count)
board.cache_hierarchy.l1icaches.prefetcher.pfHitInMSHR            0                       # number of prefetches hitting in a MSHR (Count)
board.cache_hierarchy.l1icaches.prefetcher.pfHitInWB            0                       # number of prefetches hit in the Write Buffer (Count)
board.cache_hierarchy.l1icaches.prefetcher.pfLate            0                       # number of late prefetches (hitting in cache, MSHR or WB) (Count)
board.cache_hierarchy.l1icaches.prefetcher.pfIdentified            0                       # number of prefetch candidates identified (Count)
board.cache_hierarchy.l1icaches.prefetcher.pfBufferHit            0                       # number of redundant prefetches already in prefetch queue (Count)
board.cache_hierarchy.l1icaches.prefetcher.pfInCache            0                       # number of redundant prefetches already in cache/mshr dropped (Count)
board.cache_hierarchy.l1icaches.prefetcher.pfRemovedDemand            0                       # number of prefetches dropped due to a demand for the same address (Count)
board.cache_hierarchy.l1icaches.prefetcher.pfRemovedFull            0                       # number of prefetches dropped due to prefetch queue size (Count)
board.cache_hierarchy.l1icaches.prefetcher.pfSpanPage            0                       # number of prefetches that crossed the page (Count)
board.cache_hierarchy.l1icaches.prefetcher.pfUsefulSpanPage            0                       # number of prefetches that is useful and crossed the page (Count)
board.cache_hierarchy.l1icaches.prefetcher.power_state.pwrStateResidencyTicks::UNDEFINED 102131688411                       # Cumulative time (in ticks) in various power states (Tick)
board.cache_hierarchy.l1icaches.tags.tagsInUse   511.884690                       # Average ticks per tags in use ((Tick/Count))
board.cache_hierarchy.l1icaches.tags.totalRefs     66731669                       # Total number of references to valid blocks. (Count)
board.cache_hierarchy.l1icaches.tags.sampledRefs      1550447                       # Sample count of references to valid blocks. (Count)
board.cache_hierarchy.l1icaches.tags.avgRefs    43.040277                       # Average number of references to valid blocks. ((Count/Count))
board.cache_hierarchy.l1icaches.tags.warmupTick        70263                       # The tick when the warmup percentage was hit. (Tick)
board.cache_hierarchy.l1icaches.tags.occupancies::processor.cores.core.inst   511.884690                       # Average occupied blocks per tick, per requestor ((Count/Tick))
board.cache_hierarchy.l1icaches.tags.avgOccs::processor.cores.core.inst     0.999775                       # Average percentage of cache occupancy ((Ratio/Tick))
board.cache_hierarchy.l1icaches.tags.avgOccs::total     0.999775                       # Average percentage of cache occupancy ((Ratio/Tick))
board.cache_hierarchy.l1icaches.tags.occupanciesTaskId::1024          512                       # Occupied blocks per task id (Count)
board.cache_hierarchy.l1icaches.tags.ageTaskId_1024::0          300                       # Occupied blocks per task id, per block age (Count)
board.cache_hierarchy.l1icaches.tags.ageTaskId_1024::1          151                       # Occupied blocks per task id, per block age (Count)
board.cache_hierarchy.l1icaches.tags.ageTaskId_1024::2           60                       # Occupied blocks per task id, per block age (Count)
board.cache_hierarchy.l1icaches.tags.ageTaskId_1024::3            1                       # Occupied blocks per task id, per block age (Count)
board.cache_hierarchy.l1icaches.tags.ratioOccsTaskId::1024            1                       # Ratio of occupied blocks and all blocks, per task id (Ratio)
board.cache_hierarchy.l1icaches.tags.tagAccesses    536153295                       # Number of tag accesses (Count)
board.cache_hierarchy.l1icaches.tags.dataAccesses    536153295                       # Number of data accesses (Count)
board.cache_hierarchy.l1icaches.tags.power_state.pwrStateResidencyTicks::UNDEFINED 102131688411                       # Cumulative time (in ticks) in various power states (Tick)
board.cache_hierarchy.l2buses.transDist::ReadResp      3728811                       # Transaction distribution (Count)
board.cache_hierarchy.l2buses.transDist::WritebackDirty      1624434                       # Transaction distribution (Count)
board.cache_hierarchy.l2buses.transDist::WritebackClean      1549803                       # Transaction distribution (Count)
board.cache_hierarchy.l2buses.transDist::CleanEvict      2058122                       # Transaction distribution (Count)
board.cache_hierarchy.l2buses.transDist::HardPFReq       139445                       # Transaction distribution (Count)
board.cache_hierarchy.l2buses.transDist::UpgradeReq          112                       # Transaction distribution (Count)
board.cache_hierarchy.l2buses.transDist::UpgradeResp          112                       # Transaction distribution (Count)
board.cache_hierarchy.l2buses.transDist::ReadExReq       507094                       # Transaction distribution (Count)
board.cache_hierarchy.l2buses.transDist::ReadExResp       507094                       # Transaction distribution (Count)
board.cache_hierarchy.l2buses.transDist::ReadSharedReq      3728812                       # Transaction distribution (Count)
board.cache_hierarchy.l2buses.pktCount_board.cache_hierarchy.l1icaches.mem_side_port::board.cache_hierarchy.l2caches.cpu_side_port      4650595                       # Packet count per connected requestor and responder (Count)
board.cache_hierarchy.l2buses.pktCount_board.cache_hierarchy.l1dcaches.mem_side_port::board.cache_hierarchy.l2caches.cpu_side_port      8056080                       # Packet count per connected requestor and responder (Count)
board.cache_hierarchy.l2buses.pktCount::total     12706675                       # Packet count per connected requestor and responder (Count)
board.cache_hierarchy.l2buses.pktSize_board.cache_hierarchy.l1icaches.mem_side_port::board.cache_hierarchy.l2caches.cpu_side_port    198409408                       # Cumulative packet size per connected requestor and responder (Byte)
board.cache_hierarchy.l2buses.pktSize_board.cache_hierarchy.l1dcaches.mem_side_port::board.cache_hierarchy.l2caches.cpu_side_port    255639552                       # Cumulative packet size per connected requestor and responder (Byte)
board.cache_hierarchy.l2buses.pktSize::total    454048960                       # Cumulative packet size per connected requestor and responder (Byte)
board.cache_hierarchy.l2buses.snoops          1137164                       # Total snoops (Count)
board.cache_hierarchy.l2buses.snoopTraffic     20200128                       # Total snoop traffic (Byte)
board.cache_hierarchy.l2buses.snoopFanout::samples      5373061                       # Request fanout histogram (Count)
board.cache_hierarchy.l2buses.snoopFanout::mean     0.010658                       # Request fanout histogram (Count)
board.cache_hierarchy.l2buses.snoopFanout::stdev     0.103101                       # Request fanout histogram (Count)
board.cache_hierarchy.l2buses.snoopFanout::underflows            0      0.00%      0.00% # Request fanout histogram (Count)
board.cache_hierarchy.l2buses.snoopFanout::0      5316023     98.94%     98.94% # Request fanout histogram (Count)
board.cache_hierarchy.l2buses.snoopFanout::1        56809      1.06%    100.00% # Request fanout histogram (Count)
board.cache_hierarchy.l2buses.snoopFanout::2          229      0.00%    100.00% # Request fanout histogram (Count)
board.cache_hierarchy.l2buses.snoopFanout::3            0      0.00%    100.00% # Request fanout histogram (Count)
board.cache_hierarchy.l2buses.snoopFanout::4            0      0.00%    100.00% # Request fanout histogram (Count)
board.cache_hierarchy.l2buses.snoopFanout::overflows            0      0.00%    100.00% # Request fanout histogram (Count)
board.cache_hierarchy.l2buses.snoopFanout::min_value            0                       # Request fanout histogram (Count)
board.cache_hierarchy.l2buses.snoopFanout::max_value            2                       # Request fanout histogram (Count)
board.cache_hierarchy.l2buses.snoopFanout::total      5373061                       # Request fanout histogram (Count)
board.cache_hierarchy.l2buses.power_state.pwrStateResidencyTicks::UNDEFINED 102131688411                       # Cumulative time (in ticks) in various power states (Tick)
board.cache_hierarchy.l2buses.reqLayer0.occupancy   4729930713                       # Layer occupancy (ticks) (Tick)
board.cache_hierarchy.l2buses.reqLayer0.utilization          0.0                       # Layer utilization (Ratio)
board.cache_hierarchy.l2buses.respLayer0.occupancy   1549388245                       # Layer occupancy (ticks) (Tick)
board.cache_hierarchy.l2buses.respLayer0.utilization          0.0                       # Layer utilization (Ratio)
board.cache_hierarchy.l2buses.respLayer1.occupancy   2683006714                       # Layer occupancy (ticks) (Tick)
board.cache_hierarchy.l2buses.respLayer1.utilization          0.0                       # Layer utilization (Ratio)
board.cache_hierarchy.l2buses.snoop_filter.totRequests      8470819                       # Total number of requests made to the snoop filter. (Count)
board.cache_hierarchy.l2buses.snoop_filter.hitSingleRequests      4234803                       # Number of requests hitting in the snoop filter with a single holder of the requested data. (Count)
board.cache_hierarchy.l2buses.snoop_filter.hitMultiRequests         5364                       # Number of requests hitting in the snoop filter with multiple (>1) holders of the requested data. (Count)
board.cache_hierarchy.l2buses.snoop_filter.totSnoops        51669                       # Total number of snoops made to the snoop filter. (Count)
board.cache_hierarchy.l2buses.snoop_filter.hitSingleSnoops        51440                       # Number of snoops hitting in the snoop filter with a single holder of the requested data. (Count)
board.cache_hierarchy.l2buses.snoop_filter.hitMultiSnoops          229                       # Number of snoops hitting in the snoop filter with multiple (>1) holders of the requested data. (Count)
board.cache_hierarchy.l2caches.demandHits::cache_hierarchy.l1dcaches.prefetcher       212369                       # number of demand (read+write) hits (Count)
board.cache_hierarchy.l2caches.demandHits::processor.cores.core.inst      1454375                       # number of demand (read+write) hits (Count)
board.cache_hierarchy.l2caches.demandHits::processor.cores.core.data      1677449                       # number of demand (read+write) hits (Count)
board.cache_hierarchy.l2caches.demandHits::total      3344193                       # number of demand (read+write) hits (Count)
board.cache_hierarchy.l2caches.overallHits::cache_hierarchy.l1dcaches.prefetcher       212369                       # number of overall hits (Count)
board.cache_hierarchy.l2caches.overallHits::processor.cores.core.inst      1454375                       # number of overall hits (Count)
board.cache_hierarchy.l2caches.overallHits::processor.cores.core.data      1677449                       # number of overall hits (Count)
board.cache_hierarchy.l2caches.overallHits::total      3344193                       # number of overall hits (Count)
board.cache_hierarchy.l2caches.demandMisses::cache_hierarchy.l1dcaches.prefetcher        99018                       # number of demand (read+write) misses (Count)
board.cache_hierarchy.l2caches.demandMisses::processor.cores.core.inst        95942                       # number of demand (read+write) misses (Count)
board.cache_hierarchy.l2caches.demandMisses::processor.cores.core.data       696616                       # number of demand (read+write) misses (Count)
board.cache_hierarchy.l2caches.demandMisses::total       891576                       # number of demand (read+write) misses (Count)
board.cache_hierarchy.l2caches.overallMisses::cache_hierarchy.l1dcaches.prefetcher        99018                       # number of overall misses (Count)
board.cache_hierarchy.l2caches.overallMisses::processor.cores.core.inst        95942                       # number of overall misses (Count)
board.cache_hierarchy.l2caches.overallMisses::processor.cores.core.data       696616                       # number of overall misses (Count)
board.cache_hierarchy.l2caches.overallMisses::total       891576                       # number of overall misses (Count)
board.cache_hierarchy.l2caches.demandMissLatency::cache_hierarchy.l1dcaches.prefetcher   7431668071                       # number of demand (read+write) miss ticks (Tick)
board.cache_hierarchy.l2caches.demandMissLatency::processor.cores.core.inst   5965592769                       # number of demand (read+write) miss ticks (Tick)
board.cache_hierarchy.l2caches.demandMissLatency::processor.cores.core.data  40775650528                       # number of demand (read+write) miss ticks (Tick)
board.cache_hierarchy.l2caches.demandMissLatency::total  54172911368                       # number of demand (read+write) miss ticks (Tick)
board.cache_hierarchy.l2caches.overallMissLatency::cache_hierarchy.l1dcaches.prefetcher   7431668071                       # number of overall miss ticks (Tick)
board.cache_hierarchy.l2caches.overallMissLatency::processor.cores.core.inst   5965592769                       # number of overall miss ticks (Tick)
board.cache_hierarchy.l2caches.overallMissLatency::processor.cores.core.data  40775650528                       # number of overall miss ticks (Tick)
board.cache_hierarchy.l2caches.overallMissLatency::total  54172911368                       # number of overall miss ticks (Tick)
board.cache_hierarchy.l2caches.demandAccesses::cache_hierarchy.l1dcaches.prefetcher       311387                       # number of demand (read+write) accesses (Count)
board.cache_hierarchy.l2caches.demandAccesses::processor.cores.core.inst      1550317                       # number of demand (read+write) accesses (Count)
board.cache_hierarchy.l2caches.demandAccesses::processor.cores.core.data      2374065                       # number of demand (read+write) accesses (Count)
board.cache_hierarchy.l2caches.demandAccesses::total      4235769                       # number of demand (read+write) accesses (Count)
board.cache_hierarchy.l2caches.overallAccesses::cache_hierarchy.l1dcaches.prefetcher       311387                       # number of overall (read+write) accesses (Count)
board.cache_hierarchy.l2caches.overallAccesses::processor.cores.core.inst      1550317                       # number of overall (read+write) accesses (Count)
board.cache_hierarchy.l2caches.overallAccesses::processor.cores.core.data      2374065                       # number of overall (read+write) accesses (Count)
board.cache_hierarchy.l2caches.overallAccesses::total      4235769                       # number of overall (read+write) accesses (Count)
board.cache_hierarchy.l2caches.demandMissRate::cache_hierarchy.l1dcaches.prefetcher     0.317990                       # miss rate for demand accesses (Ratio)
board.cache_hierarchy.l2caches.demandMissRate::processor.cores.core.inst     0.061885                       # miss rate for demand accesses (Ratio)
board.cache_hierarchy.l2caches.demandMissRate::processor.cores.core.data     0.293428                       # miss rate for demand accesses (Ratio)
board.cache_hierarchy.l2caches.demandMissRate::total     0.210487                       # miss rate for demand accesses (Ratio)
board.cache_hierarchy.l2caches.overallMissRate::cache_hierarchy.l1dcaches.prefetcher     0.317990                       # miss rate for overall accesses (Ratio)
board.cache_hierarchy.l2caches.overallMissRate::processor.cores.core.inst     0.061885                       # miss rate for overall accesses (Ratio)
board.cache_hierarchy.l2caches.overallMissRate::processor.cores.core.data     0.293428                       # miss rate for overall accesses (Ratio)
board.cache_hierarchy.l2caches.overallMissRate::total     0.210487                       # miss rate for overall accesses (Ratio)
board.cache_hierarchy.l2caches.demandAvgMissLatency::cache_hierarchy.l1dcaches.prefetcher 75053.708124                       # average overall miss latency in ticks ((Tick/Count))
board.cache_hierarchy.l2caches.demandAvgMissLatency::processor.cores.core.inst 62179.157918                       # average overall miss latency in ticks ((Tick/Count))
board.cache_hierarchy.l2caches.demandAvgMissLatency::processor.cores.core.data 58533.898917                       # average overall miss latency in ticks ((Tick/Count))
board.cache_hierarchy.l2caches.demandAvgMissLatency::total 60760.845254                       # average overall miss latency in ticks ((Tick/Count))
board.cache_hierarchy.l2caches.overallAvgMissLatency::cache_hierarchy.l1dcaches.prefetcher 75053.708124                       # average overall miss latency ((Tick/Count))
board.cache_hierarchy.l2caches.overallAvgMissLatency::processor.cores.core.inst 62179.157918                       # average overall miss latency ((Tick/Count))
board.cache_hierarchy.l2caches.overallAvgMissLatency::processor.cores.core.data 58533.898917                       # average overall miss latency ((Tick/Count))
board.cache_hierarchy.l2caches.overallAvgMissLatency::total 60760.845254                       # average overall miss latency ((Tick/Count))
board.cache_hierarchy.l2caches.blockedCycles::no_mshrs         2155                       # number of cycles access was blocked (Cycle)
board.cache_hierarchy.l2caches.blockedCycles::no_targets            0                       # number of cycles access was blocked (Cycle)
board.cache_hierarchy.l2caches.blockedCauses::no_mshrs           40                       # number of times access was blocked (Count)
board.cache_hierarchy.l2caches.blockedCauses::no_targets            0                       # number of times access was blocked (Count)
board.cache_hierarchy.l2caches.avgBlocked::no_mshrs    53.875000                       # average number of cycles each access was blocked ((Cycle/Count))
board.cache_hierarchy.l2caches.avgBlocked::no_targets          nan                       # average number of cycles each access was blocked ((Cycle/Count))
board.cache_hierarchy.l2caches.writebacks::writebacks       315490                       # number of writebacks (Count)
board.cache_hierarchy.l2caches.writebacks::total       315490                       # number of writebacks (Count)
board.cache_hierarchy.l2caches.demandMshrHits::cache_hierarchy.l1dcaches.prefetcher        14684                       # number of demand (read+write) MSHR hits (Count)
board.cache_hierarchy.l2caches.demandMshrHits::processor.cores.core.inst            8                       # number of demand (read+write) MSHR hits (Count)
board.cache_hierarchy.l2caches.demandMshrHits::processor.cores.core.data           35                       # number of demand (read+write) MSHR hits (Count)
board.cache_hierarchy.l2caches.demandMshrHits::total        14727                       # number of demand (read+write) MSHR hits (Count)
board.cache_hierarchy.l2caches.overallMshrHits::cache_hierarchy.l1dcaches.prefetcher        14684                       # number of overall MSHR hits (Count)
board.cache_hierarchy.l2caches.overallMshrHits::processor.cores.core.inst            8                       # number of overall MSHR hits (Count)
board.cache_hierarchy.l2caches.overallMshrHits::processor.cores.core.data           35                       # number of overall MSHR hits (Count)
board.cache_hierarchy.l2caches.overallMshrHits::total        14727                       # number of overall MSHR hits (Count)
board.cache_hierarchy.l2caches.demandMshrMisses::cache_hierarchy.l1dcaches.prefetcher        84334                       # number of demand (read+write) MSHR misses (Count)
board.cache_hierarchy.l2caches.demandMshrMisses::processor.cores.core.inst        95934                       # number of demand (read+write) MSHR misses (Count)
board.cache_hierarchy.l2caches.demandMshrMisses::processor.cores.core.data       696581                       # number of demand (read+write) MSHR misses (Count)
board.cache_hierarchy.l2caches.demandMshrMisses::total       876849                       # number of demand (read+write) MSHR misses (Count)
board.cache_hierarchy.l2caches.overallMshrMisses::cache_hierarchy.l1dcaches.prefetcher        84334                       # number of overall MSHR misses (Count)
board.cache_hierarchy.l2caches.overallMshrMisses::cache_hierarchy.l2caches.prefetcher        79815                       # number of overall MSHR misses (Count)
board.cache_hierarchy.l2caches.overallMshrMisses::processor.cores.core.inst        95934                       # number of overall MSHR misses (Count)
board.cache_hierarchy.l2caches.overallMshrMisses::processor.cores.core.data       696581                       # number of overall MSHR misses (Count)
board.cache_hierarchy.l2caches.overallMshrMisses::total       956664                       # number of overall MSHR misses (Count)
board.cache_hierarchy.l2caches.demandMshrMissLatency::cache_hierarchy.l1dcaches.prefetcher   6642975928                       # number of demand (read+write) MSHR miss ticks (Tick)
board.cache_hierarchy.l2caches.demandMshrMissLatency::processor.cores.core.inst   5933173221                       # number of demand (read+write) MSHR miss ticks (Tick)
board.cache_hierarchy.l2caches.demandMshrMissLatency::processor.cores.core.data  40542249829                       # number of demand (read+write) MSHR miss ticks (Tick)
board.cache_hierarchy.l2caches.demandMshrMissLatency::total  53118398978                       # number of demand (read+write) MSHR miss ticks (Tick)
board.cache_hierarchy.l2caches.overallMshrMissLatency::cache_hierarchy.l1dcaches.prefetcher   6642975928                       # number of overall MSHR miss ticks (Tick)
board.cache_hierarchy.l2caches.overallMshrMissLatency::cache_hierarchy.l2caches.prefetcher   5274341898                       # number of overall MSHR miss ticks (Tick)
board.cache_hierarchy.l2caches.overallMshrMissLatency::processor.cores.core.inst   5933173221                       # number of overall MSHR miss ticks (Tick)
board.cache_hierarchy.l2caches.overallMshrMissLatency::processor.cores.core.data  40542249829                       # number of overall MSHR miss ticks (Tick)
board.cache_hierarchy.l2caches.overallMshrMissLatency::total  58392740876                       # number of overall MSHR miss ticks (Tick)
board.cache_hierarchy.l2caches.demandMshrMissRate::cache_hierarchy.l1dcaches.prefetcher     0.270833                       # mshr miss ratio for demand accesses (Ratio)
board.cache_hierarchy.l2caches.demandMshrMissRate::processor.cores.core.inst     0.061880                       # mshr miss ratio for demand accesses (Ratio)
board.cache_hierarchy.l2caches.demandMshrMissRate::processor.cores.core.data     0.293413                       # mshr miss ratio for demand accesses (Ratio)
board.cache_hierarchy.l2caches.demandMshrMissRate::total     0.207011                       # mshr miss ratio for demand accesses (Ratio)
board.cache_hierarchy.l2caches.overallMshrMissRate::cache_hierarchy.l1dcaches.prefetcher     0.270833                       # mshr miss ratio for overall accesses (Ratio)
board.cache_hierarchy.l2caches.overallMshrMissRate::cache_hierarchy.l2caches.prefetcher          inf                       # mshr miss ratio for overall accesses (Ratio)
board.cache_hierarchy.l2caches.overallMshrMissRate::processor.cores.core.inst     0.061880                       # mshr miss ratio for overall accesses (Ratio)
board.cache_hierarchy.l2caches.overallMshrMissRate::processor.cores.core.data     0.293413                       # mshr miss ratio for overall accesses (Ratio)
board.cache_hierarchy.l2caches.overallMshrMissRate::total     0.225854                       # mshr miss ratio for overall accesses (Ratio)
board.cache_hierarchy.l2caches.demandAvgMshrMissLatency::cache_hierarchy.l1dcaches.prefetcher 78769.842863                       # average overall mshr miss latency ((Tick/Count))
board.cache_hierarchy.l2caches.demandAvgMshrMissLatency::processor.cores.core.inst 61846.407124                       # average overall mshr miss latency ((Tick/Count))
board.cache_hierarchy.l2caches.demandAvgMshrMissLatency::processor.cores.core.data 58201.773848                       # average overall mshr miss latency ((Tick/Count))
board.cache_hierarchy.l2caches.demandAvgMshrMissLatency::total 60578.730178                       # average overall mshr miss latency ((Tick/Count))
board.cache_hierarchy.l2caches.overallAvgMshrMissLatency::cache_hierarchy.l1dcaches.prefetcher 78769.842863                       # average overall mshr miss latency ((Tick/Count))
board.cache_hierarchy.l2caches.overallAvgMshrMissLatency::cache_hierarchy.l2caches.prefetcher 66082.088555                       # average overall mshr miss latency ((Tick/Count))
board.cache_hierarchy.l2caches.overallAvgMshrMissLatency::processor.cores.core.inst 61846.407124                       # average overall mshr miss latency ((Tick/Count))
board.cache_hierarchy.l2caches.overallAvgMshrMissLatency::processor.cores.core.data 58201.773848                       # average overall mshr miss latency ((Tick/Count))
board.cache_hierarchy.l2caches.overallAvgMshrMissLatency::total 61037.878373                       # average overall mshr miss latency ((Tick/Count))
board.cache_hierarchy.l2caches.replacements       997582                       # number of replacements (Count)
board.cache_hierarchy.l2caches.CleanEvict.mshrMisses::writebacks         4823                       # number of CleanEvict MSHR misses (Count)
board.cache_hierarchy.l2caches.CleanEvict.mshrMisses::total         4823                       # number of CleanEvict MSHR misses (Count)
board.cache_hierarchy.l2caches.CleanEvict.mshrMissRate::writebacks          inf                       # mshr miss rate for CleanEvict accesses (Ratio)
board.cache_hierarchy.l2caches.CleanEvict.mshrMissRate::total          inf                       # mshr miss rate for CleanEvict accesses (Ratio)
board.cache_hierarchy.l2caches.HardPFReq.mshrMisses::cache_hierarchy.l2caches.prefetcher        79815                       # number of HardPFReq MSHR misses (Count)
board.cache_hierarchy.l2caches.HardPFReq.mshrMisses::total        79815                       # number of HardPFReq MSHR misses (Count)
board.cache_hierarchy.l2caches.HardPFReq.mshrMissLatency::cache_hierarchy.l2caches.prefetcher   5274341898                       # number of HardPFReq MSHR miss ticks (Tick)
board.cache_hierarchy.l2caches.HardPFReq.mshrMissLatency::total   5274341898                       # number of HardPFReq MSHR miss ticks (Tick)
board.cache_hierarchy.l2caches.HardPFReq.mshrMissRate::cache_hierarchy.l2caches.prefetcher          inf                       # mshr miss rate for HardPFReq accesses (Ratio)
board.cache_hierarchy.l2caches.HardPFReq.mshrMissRate::total          inf                       # mshr miss rate for HardPFReq accesses (Ratio)
board.cache_hierarchy.l2caches.HardPFReq.avgMshrMissLatency::cache_hierarchy.l2caches.prefetcher 66082.088555                       # average HardPFReq mshr miss latency ((Tick/Count))
board.cache_hierarchy.l2caches.HardPFReq.avgMshrMissLatency::total 66082.088555                       # average HardPFReq mshr miss latency ((Tick/Count))
board.cache_hierarchy.l2caches.ReadExReq.hits::cache_hierarchy.l1dcaches.prefetcher            1                       # number of ReadExReq hits (Count)
board.cache_hierarchy.l2caches.ReadExReq.hits::processor.cores.core.data       408510                       # number of ReadExReq hits (Count)
board.cache_hierarchy.l2caches.ReadExReq.hits::total       408511                       # number of ReadExReq hits (Count)
board.cache_hierarchy.l2caches.ReadExReq.misses::processor.cores.core.data        98583                       # number of ReadExReq misses (Count)
board.cache_hierarchy.l2caches.ReadExReq.misses::total        98583                       # number of ReadExReq misses (Count)
board.cache_hierarchy.l2caches.ReadExReq.missLatency::processor.cores.core.data   5871111012                       # number of ReadExReq miss ticks (Tick)
board.cache_hierarchy.l2caches.ReadExReq.missLatency::total   5871111012                       # number of ReadExReq miss ticks (Tick)
board.cache_hierarchy.l2caches.ReadExReq.accesses::cache_hierarchy.l1dcaches.prefetcher            1                       # number of ReadExReq accesses(hits+misses) (Count)
board.cache_hierarchy.l2caches.ReadExReq.accesses::processor.cores.core.data       507093                       # number of ReadExReq accesses(hits+misses) (Count)
board.cache_hierarchy.l2caches.ReadExReq.accesses::total       507094                       # number of ReadExReq accesses(hits+misses) (Count)
board.cache_hierarchy.l2caches.ReadExReq.missRate::processor.cores.core.data     0.194408                       # miss rate for ReadExReq accesses (Ratio)
board.cache_hierarchy.l2caches.ReadExReq.missRate::total     0.194408                       # miss rate for ReadExReq accesses (Ratio)
board.cache_hierarchy.l2caches.ReadExReq.avgMissLatency::processor.cores.core.data 59555.004534                       # average ReadExReq miss latency ((Tick/Count))
board.cache_hierarchy.l2caches.ReadExReq.avgMissLatency::total 59555.004534                       # average ReadExReq miss latency ((Tick/Count))
board.cache_hierarchy.l2caches.ReadExReq.mshrHits::processor.cores.core.data           12                       # number of ReadExReq MSHR hits (Count)
board.cache_hierarchy.l2caches.ReadExReq.mshrHits::total           12                       # number of ReadExReq MSHR hits (Count)
board.cache_hierarchy.l2caches.ReadExReq.mshrMisses::processor.cores.core.data        98571                       # number of ReadExReq MSHR misses (Count)
board.cache_hierarchy.l2caches.ReadExReq.mshrMisses::total        98571                       # number of ReadExReq MSHR misses (Count)
board.cache_hierarchy.l2caches.ReadExReq.mshrMissLatency::processor.cores.core.data   5838095727                       # number of ReadExReq MSHR miss ticks (Tick)
board.cache_hierarchy.l2caches.ReadExReq.mshrMissLatency::total   5838095727                       # number of ReadExReq MSHR miss ticks (Tick)
board.cache_hierarchy.l2caches.ReadExReq.mshrMissRate::processor.cores.core.data     0.194384                       # mshr miss rate for ReadExReq accesses (Ratio)
board.cache_hierarchy.l2caches.ReadExReq.mshrMissRate::total     0.194384                       # mshr miss rate for ReadExReq accesses (Ratio)
board.cache_hierarchy.l2caches.ReadExReq.avgMshrMissLatency::processor.cores.core.data 59227.315610                       # average ReadExReq mshr miss latency ((Tick/Count))
board.cache_hierarchy.l2caches.ReadExReq.avgMshrMissLatency::total 59227.315610                       # average ReadExReq mshr miss latency ((Tick/Count))
board.cache_hierarchy.l2caches.ReadSharedReq.hits::cache_hierarchy.l1dcaches.prefetcher       212368                       # number of ReadSharedReq hits (Count)
board.cache_hierarchy.l2caches.ReadSharedReq.hits::processor.cores.core.inst      1454375                       # number of ReadSharedReq hits (Count)
board.cache_hierarchy.l2caches.ReadSharedReq.hits::processor.cores.core.data      1268939                       # number of ReadSharedReq hits (Count)
board.cache_hierarchy.l2caches.ReadSharedReq.hits::total      2935682                       # number of ReadSharedReq hits (Count)
board.cache_hierarchy.l2caches.ReadSharedReq.misses::cache_hierarchy.l1dcaches.prefetcher        99018                       # number of ReadSharedReq misses (Count)
board.cache_hierarchy.l2caches.ReadSharedReq.misses::processor.cores.core.inst        95942                       # number of ReadSharedReq misses (Count)
board.cache_hierarchy.l2caches.ReadSharedReq.misses::processor.cores.core.data       598033                       # number of ReadSharedReq misses (Count)
board.cache_hierarchy.l2caches.ReadSharedReq.misses::total       792993                       # number of ReadSharedReq misses (Count)
board.cache_hierarchy.l2caches.ReadSharedReq.missLatency::cache_hierarchy.l1dcaches.prefetcher   7431668071                       # number of ReadSharedReq miss ticks (Tick)
board.cache_hierarchy.l2caches.ReadSharedReq.missLatency::processor.cores.core.inst   5965592769                       # number of ReadSharedReq miss ticks (Tick)
board.cache_hierarchy.l2caches.ReadSharedReq.missLatency::processor.cores.core.data  34904539516                       # number of ReadSharedReq miss ticks (Tick)
board.cache_hierarchy.l2caches.ReadSharedReq.missLatency::total  48301800356                       # number of ReadSharedReq miss ticks (Tick)
board.cache_hierarchy.l2caches.ReadSharedReq.accesses::cache_hierarchy.l1dcaches.prefetcher       311386                       # number of ReadSharedReq accesses(hits+misses) (Count)
[...]
board.processor.cores.core.fetch.cacheLines     66825356                       # Number of cache lines fetched (Count)
board.processor.cores.core.fetch.icacheSquashes       496714                       # Number of outstanding Icache misses that were squashed (Count)
board.processor.cores.core.fetch.nisnDist::samples    298033885                       # Number of instructions fetched each cycle (Total) (Count)
board.processor.cores.core.fetch.nisnDist::mean     2.767341                       # Number of instructions fetched each cycle (Total) (Count)
board.processor.cores.core.fetch.nisnDist::stdev     3.407243                       # Number of instructions fetched each cycle (Total) (Count)
board.processor.cores.core.fetch.nisnDist::underflows            0      0.00%      0.00% # Number of instructions fetched each cycle (Total) (Count)
board.processor.cores.core.fetch.nisnDist::0    161462344     54.18%     54.18% # Number of instructions fetched each cycle (Total) (Count)
board.processor.cores.core.fetch.nisnDist::1      8339909      2.80%     56.97% # Number of instructions fetched each cycle (Total) (Count)
board.processor.cores.core.fetch.nisnDist::2      7637925      2.56%     59.54% # Number of instructions fetched each cycle (Total) (Count)
board.processor.cores.core.fetch.nisnDist::3     11031695      3.70%     63.24% # Number of instructions fetched each cycle (Total) (Count)
board.processor.cores.core.fetch.nisnDist::4     10521263      3.53%     66.77% # Number of instructions fetched each cycle (Total) (Count)
board.processor.cores.core.fetch.nisnDist::5     12193565      4.09%     70.86% # Number of instructions fetched each cycle (Total) (Count)
board.processor.cores.core.fetch.nisnDist::6      9741441      3.27%     74.13% # Number of instructions fetched each cycle (Total) (Count)
board.processor.cores.core.fetch.nisnDist::7     10296788      3.45%     77.58% # Number of instructions fetched each cycle (Total) (Count)
board.processor.cores.core.fetch.nisnDist::8     66808955     22.42%    100.00% # Number of instructions fetched each cycle (Total) (Count)
board.processor.cores.core.fetch.nisnDist::overflows            0      0.00%    100.00% # Number of instructions fetched each cycle (Total) (Count)
board.processor.cores.core.fetch.nisnDist::min_value            0                       # Number of instructions fetched each cycle (Total) (Count)
board.processor.cores.core.fetch.nisnDist::max_value            8                       # Number of instructions fetched each cycle (Total) (Count)
board.processor.cores.core.fetch.nisnDist::total    298033885                       # Number of instructions fetched each cycle (Total) (Count)
board.processor.cores.core.fetchStats0.numInsts    406022199                       # Number of instructions fetched (thread level) (Count)
board.processor.cores.core.fetchStats0.numOps            0                       # Number of ops (including micro ops) fetched (thread level) (Count)
board.processor.cores.core.fetchStats0.fetchRate     1.323834                       # Number of inst fetches per cycle ((Count/Cycle))
board.processor.cores.core.fetchStats0.numBranches    104722436                       # Number of branches fetched (Count)
board.processor.cores.core.fetchStats0.branchRate     0.341447                       # Number of branch fetches per cycle (Ratio)
board.processor.cores.core.fetchStats0.icacheStallCycles     22254155                       # ICache total stall cycles (Cycle)
board.processor.cores.core.fetchStats0.numFetchSuspends            0                       # Number of times Execute suspended instruction fetching (Count)
board.processor.cores.core.iew.idleCycles            0                       # Number of cycles IEW is idle (Cycle)
board.processor.cores.core.iew.squashCycles      3355233                       # Number of cycles IEW is squashing (Cycle)
board.processor.cores.core.iew.blockCycles     84837408                       # Number of cycles IEW is blocking (Cycle)
board.processor.cores.core.iew.unblockCycles      3489317                       # Number of cycles IEW is unblocking (Cycle)
board.processor.cores.core.iew.dispatchedInsts    718723994                       # Number of instructions dispatched to IQ (Count)
board.processor.cores.core.iew.dispSquashedInsts       152025                       # Number of squashed instructions skipped by dispatch (Count)
board.processor.cores.core.iew.dispLoadInsts     92259319                       # Number of dispatched load instructions (Count)
board.processor.cores.core.iew.dispStoreInsts     57316440                       # Number of dispatched store instructions (Count)
board.processor.cores.core.iew.dispNonSpecInsts        29740                       # Number of dispatched non-speculative instructions (Count)
board.processor.cores.core.iew.iqFullEvents       603173                       # Number of times the IQ has become full, causing a stall (Count)
board.processor.cores.core.iew.lsqFullEvents      2485999                       # Number of times the LSQ has become full, causing a stall (Count)
board.processor.cores.core.iew.memOrderViolationEvents        57396                       # Number of memory order violations (Count)
board.processor.cores.core.iew.predictedTakenIncorrect      1678700                       # Number of branches that were predicted taken incorrectly (Count)
board.processor.cores.core.iew.predictedNotTakenIncorrect      2057285                       # Number of branches that were predicted not taken incorrectly (Count)
board.processor.cores.core.iew.branchMispredicts      3735985                       # Number of branch mispredicts detected at execute (Count)
board.processor.cores.core.iew.instsToCommit    636434011                       # Cumulative count of insts sent to commit (Count)
board.processor.cores.core.iew.writebackCount    634290678                       # Cumulative count of insts written-back (Count)
board.processor.cores.core.iew.producerInst    461554187                       # Number of instructions producing a value (Count)
board.processor.cores.core.iew.consumerInst    769699755                       # Number of instructions consuming a value (Count)
board.processor.cores.core.iew.wbRate        2.068102                       # Insts written-back per cycle ((Count/Cycle))
board.processor.cores.core.iew.wbFanout      0.599655                       # Average fanout of values written-back ((Count/Count))
board.processor.cores.core.interrupts.clk_domain.clock         5328                       # Clock period in ticks (Tick)
board.processor.cores.core.lsq0.forwLoads     14704978                       # Number of loads that had data forwarded from stores (Count)
board.processor.cores.core.lsq0.squashedLoads     28136530                       # Number of loads squashed (Count)
board.processor.cores.core.lsq0.ignoredResponses        33984                       # Number of memory responses ignored because the instruction is squashed (Count)
board.processor.cores.core.lsq0.memOrderViolation        57396                       # Number of memory ordering violations (Count)
board.processor.cores.core.lsq0.squashedStores     14121937                       # Number of stores squashed (Count)
board.processor.cores.core.lsq0.rescheduledLoads        12055                       # Number of loads that were rescheduled (Count)
board.processor.cores.core.lsq0.blockedByCache          943                       # Number of times an access to memory failed due to the cache being blocked (Count)
board.processor.cores.core.lsq0.loadToUse::samples     64121308                       # Distribution of cycle latency between the first time a load is issued and its completion (Unspecified)
board.processor.cores.core.lsq0.loadToUse::mean     4.983719                       # Distribution of cycle latency between the first time a load is issued and its completion (Unspecified)
board.processor.cores.core.lsq0.loadToUse::stdev    23.073242                       # Distribution of cycle latency between the first time a load is issued and its completion (Unspecified)
board.processor.cores.core.lsq0.loadToUse::0-9     61509668     95.93%     95.93% # Distribution of cycle latency between the first time a load is issued and its completion (Unspecified)
board.processor.cores.core.lsq0.loadToUse::10-19      1676329      2.61%     98.54% # Distribution of cycle latency between the first time a load is issued and its completion (Unspecified)
board.processor.cores.core.lsq0.loadToUse::20-29        24568      0.04%     98.58% # Distribution of cycle latency between the first time a load is issued and its completion (Unspecified)
board.processor.cores.core.lsq0.loadToUse::30-39         3207      0.01%     98.58% # Distribution of cycle latency between the first time a load is issued and its completion (Unspecified)
board.processor.cores.core.lsq0.loadToUse::40-49         2382      0.00%     98.59% # Distribution of cycle latency between the first time a load is issued and its completion (Unspecified)
board.processor.cores.core.lsq0.loadToUse::50-59         9035      0.01%     98.60% # Distribution of cycle latency between the first time a load is issued and its completion (Unspecified)
board.processor.cores.core.lsq0.loadToUse::60-69         2236      0.00%     98.61% # Distribution of cycle latency between the first time a load is issued and its completion (Unspecified)
board.processor.cores.core.lsq0.loadToUse::70-79         2745      0.00%     98.61% # Distribution of cycle latency between the first time a load is issued and its completion (Unspecified)
board.processor.cores.core.lsq0.loadToUse::80-89         4486      0.01%     98.62% # Distribution of cycle latency between the first time a load is issued and its completion (Unspecified)
board.processor.cores.core.lsq0.loadToUse::90-99         5363      0.01%     98.63% # Distribution of cycle latency between the first time a load is issued and its completion (Unspecified)
board.processor.cores.core.lsq0.loadToUse::100-109         7351      0.01%     98.64% # Distribution of cycle latency between the first time a load is issued and its completion (Unspecified)
board.processor.cores.core.lsq0.loadToUse::110-119        12240      0.02%     98.66% # Distribution of cycle latency between the first time a load is issued and its completion (Unspecified)
board.processor.cores.core.lsq0.loadToUse::120-129        17327      0.03%     98.68% # Distribution of cycle latency between the first time a load is issued and its completion (Unspecified)
board.processor.cores.core.lsq0.loadToUse::130-139        36624      0.06%     98.74% # Distribution of cycle latency between the first time a load is issued and its completion (Unspecified)
board.processor.cores.core.lsq0.loadToUse::140-149       486413      0.76%     99.50% # Distribution of cycle latency between the first time a load is issued and its completion (Unspecified)
board.processor.cores.core.lsq0.loadToUse::150-159        11045      0.02%     99.52% # Distribution of cycle latency between the first time a load is issued and its completion (Unspecified)
board.processor.cores.core.lsq0.loadToUse::160-169         8017      0.01%     99.53% # Distribution of cycle latency between the first time a load is issued and its completion (Unspecified)
board.processor.cores.core.lsq0.loadToUse::170-179         9536      0.01%     99.54% # Distribution of cycle latency between the first time a load is issued and its completion (Unspecified)
board.processor.cores.core.lsq0.loadToUse::180-189       107986      0.17%     99.71% # Distribution of cycle latency between the first time a load is issued and its completion (Unspecified)
board.processor.cores.core.lsq0.loadToUse::190-199         7097      0.01%     99.72% # Distribution of cycle latency between the first time a load is issued and its completion (Unspecified)
board.processor.cores.core.lsq0.loadToUse::200-209         5450      0.01%     99.73% # Distribution of cycle latency between the first time a load is issued and its completion (Unspecified)
board.processor.cores.core.lsq0.loadToUse::210-219         8981      0.01%     99.75% # Distribution of cycle latency between the first time a load is issued and its completion (Unspecified)
board.processor.cores.core.lsq0.loadToUse::220-229       120254      0.19%     99.93% # Distribution of cycle latency between the first time a load is issued and its completion (Unspecified)
board.processor.cores.core.lsq0.loadToUse::230-239         4325      0.01%     99.94% # Distribution of cycle latency between the first time a load is issued and its completion (Unspecified)
board.processor.cores.core.lsq0.loadToUse::240-249         3920      0.01%     99.95% # Distribution of cycle latency between the first time a load is issued and its completion (Unspecified)
board.processor.cores.core.lsq0.loadToUse::250-259         1202      0.00%     99.95% # Distribution of cycle latency between the first time a load is issued and its completion (Unspecified)
board.processor.cores.core.lsq0.loadToUse::260-269         1117      0.00%     99.95% # Distribution of cycle latency between the first time a load is issued and its completion (Unspecified)
board.processor.cores.core.lsq0.loadToUse::270-279         1014      0.00%     99.95% # Distribution of cycle latency between the first time a load is issued and its completion (Unspecified)
board.processor.cores.core.lsq0.loadToUse::280-289          977      0.00%     99.95% # Distribution of cycle latency between the first time a load is issued and its completion (Unspecified)
board.processor.cores.core.lsq0.loadToUse::290-299          751      0.00%     99.95% # Distribution of cycle latency between the first time a load is issued and its completion (Unspecified)
board.processor.cores.core.lsq0.loadToUse::overflows        29662      0.05%    100.00% # Distribution of cycle latency between the first time a load is issued and its completion (Unspecified)
board.processor.cores.core.lsq0.loadToUse::min_value            2                       # Distribution of cycle latency between the first time a load is issued and its completion (Unspecified)
board.processor.cores.core.lsq0.loadToUse::max_value         1545                       # Distribution of cycle latency between the first time a load is issued and its completion (Unspecified)
board.processor.cores.core.lsq0.loadToUse::total     64121308                       # Distribution of cycle latency between the first time a load is issued and its completion (Unspecified)
board.processor.cores.core.mmu.dtb.rdAccesses     78270174                       # TLB accesses on read requests (Count)
board.processor.cores.core.mmu.dtb.wrAccesses     50764253                       # TLB accesses on write requests (Count)
board.processor.cores.core.mmu.dtb.rdMisses       708854                       # TLB misses on read requests (Count)
board.processor.cores.core.mmu.dtb.wrMisses        93541                       # TLB misses on write requests (Count)
board.processor.cores.core.mmu.dtb.walker.power_state.pwrStateResidencyTicks::UNDEFINED 102131688411                       # Cumulative time (in ticks) in various power states (Tick)
board.processor.cores.core.mmu.itb.rdAccesses            0                       # TLB accesses on read requests (Count)
board.processor.cores.core.mmu.itb.wrAccesses     66832884                       # TLB accesses on write requests (Count)
board.processor.cores.core.mmu.itb.rdMisses            0                       # TLB misses on read requests (Count)
board.processor.cores.core.mmu.itb.wrMisses        76366                       # TLB misses on write requests (Count)
board.processor.cores.core.mmu.itb.walker.power_state.pwrStateResidencyTicks::UNDEFINED 102131688411                       # Cumulative time (in ticks) in various power states (Tick)
board.processor.cores.core.power_state.pwrStateResidencyTicks::ON 102131688411                       # Cumulative time (in ticks) in various power states (Tick)
board.processor.cores.core.rename.squashCycles      3355233                       # Number of cycles rename is squashing (Cycle)
board.processor.cores.core.rename.idleCycles     41414157                       # Number of cycles rename is idle (Cycle)
board.processor.cores.core.rename.blockCycles    106522707                       # Number of cycles rename is blocking (Cycle)
board.processor.cores.core.rename.serializeStallCycles         3254                       # count of cycles rename stalled for serializing inst (Cycle)
board.processor.cores.core.rename.runCycles    100010372                       # Number of cycles rename is running (Cycle)
board.processor.cores.core.rename.unblockCycles     46728162                       # Number of cycles rename is unblocking (Cycle)
board.processor.cores.core.rename.renamedInsts    750028982                       # Number of instructions processed by rename (Count)
board.processor.cores.core.rename.ROBFullEvents      1343433                       # Number of times rename has blocked due to ROB full (Count)
board.processor.cores.core.rename.IQFullEvents     17567271                       # Number of times rename has blocked due to IQ full (Count)
board.processor.cores.core.rename.LQFullEvents      5945312                       # Number of times rename has blocked due to LQ full (Count)
board.processor.cores.core.rename.SQFullEvents     19630056                       # Number of times rename has blocked due to SQ full (Count)
board.processor.cores.core.rename.fullRegistersEvents           61                       # Number of times there has been no free registers (Count)
board.processor.cores.core.rename.renamedOperands   1181546235                       # Number of destination operands rename has renamed (Count)
board.processor.cores.core.rename.lookups   2427637659                       # Number of register rename lookups that rename has made (Count)
board.processor.cores.core.rename.intLookups    938266944                       # Number of integer rename lookups (Count)
board.processor.cores.core.rename.fpLookups      3541349                       # Number of floating rename lookups (Count)
board.processor.cores.core.rename.committedMaps    822666634                       # Number of HB maps that are committed (Count)
board.processor.cores.core.rename.undoneMaps    358879549                       # Number of HB maps that are undone due to squashing (Count)
board.processor.cores.core.rename.serializing           43                       # count of serializing insts renamed (Count)
board.processor.cores.core.rename.tempSerializing           42                       # count of temporary serializing insts renamed (Count)
board.processor.cores.core.rename.skidInsts     73670288                       # count of insts added to the skid buffer (Count)
board.processor.cores.core.rob.reads        954177771                       # The number of ROB reads (Count)
board.processor.cores.core.rob.writes      1464890964                       # The number of ROB writes (Count)
board.processor.cores.core.thread_0.numInsts    250000002                       # Number of Instructions committed (Count)
board.processor.cores.core.thread_0.numOps    518366975                       # Number of Ops committed (Count)
board.processor.cores.core.thread_0.numMemRefs            0                       # Number of Memory References (Count)
board.processor.cores.core.workload.numSyscalls           64                       # Number of system calls (Count)
board.workload.inst.arm                             0                       # number of arm instructions executed (Count)
board.workload.inst.quiesce                         0                       # number of quiesce instructions executed (Count)

---------- End Simulation Statistics   ----------
