
---------- Begin Simulation Statistics ----------
simSeconds                                   0.027628                       # Number of seconds simulated (Second)
simTicks                                  27628177167                       # Number of ticks simulated (Tick)
finalTick                                 27628177167                       # Number of ticks from beginning of simulation (restored from checkpoints and never reset) (Tick)
simFreq                                  1000000000000                       # The number of ticks per simulated second ((Tick/Second))
hostSeconds                                    272.26                       # Real time elapsed on the host (Second)
hostTickRate                                101476256                       # The number of ticks simulated per host second (ticks/s) ((Tick/Second))
hostMemory                                    1210504                       # Number of bytes of host memory used (Byte)
simInsts                                     25750222                       # Number of instructions simulated (Count)
simOps                                       42172340                       # Number of ops (including micro ops) simulated (Count)
hostInstRate                                    94579                       # Simulator instruction rate (inst/s) ((Count/Second))
hostOpRate                                     154896                       # Simulator op (including micro ops) rate (op/s) ((Count/Second))
board.cache_hierarchy.dptw_caches.blockedCycles::no_mshrs            0                       # number of cycles access was blocked (Cycle)
board.cache_hierarchy.dptw_caches.blockedCycles::no_targets            0                       # number of cycles access was blocked (Cycle)
board.cache_hierarchy.dptw_caches.blockedCauses::no_mshrs            0                       # number of times access was blocked (Count)
board.cache_hierarchy.dptw_caches.blockedCauses::no_targets            0                       # number of times access was blocked (Count)
board.cache_hierarchy.dptw_caches.avgBlocked::no_mshrs          nan                       # average number of cycles each access was blocked ((Cycle/Count))
board.cache_hierarchy.dptw_caches.avgBlocked::no_targets          nan                       # average number of cycles each access was blocked ((Cycle/Count))
board.cache_hierarchy.dptw_caches.replacements            0                       # number of replacements (Count)
board.cache_hierarchy.dptw_caches.power_state.pwrStateResidencyTicks::UNDEFINED  27628177167                       # Cumulative time (in ticks) in various power states (Tick)
board.cache_hierarchy.dptw_caches.tags.tagsInUse            0                       # Average ticks per tags in use ((Tick/Count))
board.cache_hierarchy.dptw_caches.tags.totalRefs            0                       # Total number of references to valid blocks. (Count)
board.cache_hierarchy.dptw_caches.tags.sampledRefs            0                       # Sample count of references to valid blocks. (Count)
board.cache_hierarchy.dptw_caches.tags.avgRefs          nan                       # Average number of references to valid blocks. ((Count/Count))
board.cache_hierarchy.dptw_caches.tags.warmupTick            0                       # The tick when the warmup percentage was hit. (Tick)
board.cache_hierarchy.dptw_caches.tags.tagAccesses            0                       # Number of tag accesses (Count)
board.cache_hierarchy.dptw_caches.tags.dataAccesses            0                       # Number of data accesses (Count)
board.cache_hierarchy.dptw_caches.tags.power_state.pwrStateResidencyTicks::UNDEFINED  27628177167                       # Cumulative time (in ticks) in various power states (Tick)
board.cache_hierarchy.iptw_caches.blockedCycles::no_mshrs            0                       # number of cycles access was blocked (Cycle)
board.cache_hierarchy.iptw_caches.blockedCycles::no_targets            0                       # number of cycles access was blocked (Cycle)
board.cache_hierarchy.iptw_caches.blockedCauses::no_mshrs            0                       # number of times access was blocked (Count)
board.cache_hierarchy.iptw_caches.blockedCauses::no_targets            0                       # number of times access was blocked (Count)
board.cache_hierarchy.iptw_caches.avgBlocked::no_mshrs          nan                       # average number of cycles each access was blocked ((Cycle/Count))
board.cache_hierarchy.iptw_caches.avgBlocked::no_targets          nan                       # average number of cycles each access was blocked ((Cycle/Count))
board.cache_hierarchy.iptw_caches.replacements            0                       # number of replacements (Count)
board.cache_hierarchy.iptw_caches.power_state.pwrStateResidencyTicks::UNDEFINED  27628177167                       # Cumulative time (in ticks) in various power states (Tick)
board.cache_hierarchy.iptw_caches.tags.tagsInUse            0                       # Average ticks per tags in use ((Tick/Count))
board.cache_hierarchy.iptw_caches.tags.totalRefs            0                       # Total number of references to valid blocks. (Count)
board.cache_hierarchy.iptw_caches.tags.sampledRefs            0                       # Sample count of references to valid blocks. (Count)
board.cache_hierarchy.iptw_caches.tags.avgRefs          nan                       # Average number of references to valid blocks. ((Count/Count))
board.cache_hierarchy.iptw_caches.tags.warmupTick            0                       # The tick when the warmup percentage was hit. (Tick)
board.cache_hierarchy.iptw_caches.tags.tagAccesses            0                       # Number of tag accesses (Count)
board.cache_hierarchy.iptw_caches.tags.dataAccesses            0                       # Number of data accesses (Count)
board.cache_hierarchy.iptw_caches.tags.power_state.pwrStateResidencyTicks::UNDEFINED  27628177167                       # Cumulative time (in ticks) in various power states (Tick)
board.cache_hierarchy.l1dcaches.demandHits::processor.cores.core.data     10540988                       # number of demand (read+write) hits (Count)
board.cache_hierarchy.l1dcaches.demandHits::total     10540988                       # number of demand (read+write) hits (Count)
board.cache_hierarchy.l1dcaches.overallHits::processor.cores.core.data     10540988                       # number of overall hits (Count)
board.cache_hierarchy.l1dcaches.overallHits::total     10540988                       # number of overall hits (Count)
board.cache_hierarchy.l1dcaches.demandMisses::processor.cores.core.data       123834                       # number of demand (read+write) misses (Count)
board.cache_hierarchy.l1dcaches.demandMisses::total       123834                       # number of demand (read+write) misses (Count)
board.cache_hierarchy.l1dcaches.overallMisses::processor.cores.core.data       123834                       # number of overall misses (Count)
board.cache_hierarchy.l1dcaches.overallMisses::total       123834                       # number of overall misses (Count)
board.cache_hierarchy.l1dcaches.demandMissLatency::processor.cores.core.data   6195554910                       # number of demand (read+write) miss ticks (Tick)
board.cache_hierarchy.l1dcaches.demandMissLatency::total   6195554910                       # number of demand (read+write) miss ticks (Tick)
board.cache_hierarchy.l1dcaches.overallMissLatency::processor.cores.core.data   6195554910                       # number of overall miss ticks (Tick)
board.cache_hierarchy.l1dcaches.overallMissLatency::total   6195554910                       # number of overall miss ticks (Tick)
board.cache_hierarchy.l1dcaches.demandAccesses::processor.cores.core.data     10664822                       # number of demand (read+write) accesses (Count)
board.cache_hierarchy.l1dcaches.demandAccesses::total     10664822                       # number of demand (read+write) accesses (Count)
board.cache_hierarchy.l1dcaches.overallAccesses::processor.cores.core.data     10664822                       # number of overall (read+write) accesses (Count)
board.cache_hierarchy.l1dcaches.overallAccesses::total     10664822                       # number of overall (read+write) accesses (Count)
board.cache_hierarchy.l1dcaches.demandMissRate::processor.cores.core.data     0.011611                       # miss rate for demand accesses (Ratio)
board.cache_hierarchy.l1dcaches.demandMissRate::total     0.011611                       # miss rate for demand accesses (Ratio)
board.cache_hierarchy.l1dcaches.overallMissRate::processor.cores.core.data     0.011611                       # miss rate for overall accesses (Ratio)
board.cache_hierarchy.l1dcaches.overallMissRate::total     0.011611                       # miss rate for overall accesses (Ratio)
board.cache_hierarchy.l1dcaches.demandAvgMissLatency::processor.cores.core.data 50031.129657                       # average overall miss latency in ticks ((Tick/Count))
board.cache_hierarchy.l1dcaches.demandAvgMissLatency::total 50031.129657                       # average overall miss latency in ticks ((Tick/Count))
board.cache_hierarchy.l1dcaches.overallAvgMissLatency::processor.cores.core.data 50031.129657                       # average overall miss latency ((Tick/Count))
board.cache_hierarchy.l1dcaches.overallAvgMissLatency::total 50031.129657                       # average overall miss latency ((Tick/Count))
board.cache_hierarchy.l1dcaches.blockedCycles::no_mshrs            0                       # number of cycles access was blocked (Cycle)
board.cache_hierarchy.l1dcaches.blockedCycles::no_targets            4                       # number of cycles access was blocked (Cycle)
board.cache_hierarchy.l1dcaches.blockedCauses::no_mshrs            0                       # number of times access was blocked (Count)
board.cache_hierarchy.l1dcaches.blockedCauses::no_targets            1                       # number of times access was blocked (Count)
board.cache_hierarchy.l1dcaches.avgBlocked::no_mshrs          nan                       # average number of cycles each access was blocked ((Cycle/Count))
board.cache_hierarchy.l1dcaches.avgBlocked::no_targets            4                       # average number of cycles each access was blocked ((Cycle/Count))
board.cache_hierarchy.l1dcaches.writebacks::writebacks         4024                       # number of writebacks (Count)
board.cache_hierarchy.l1dcaches.writebacks::total         4024                       # number of writebacks (Count)
board.cache_hierarchy.l1dcaches.demandMshrHits::processor.cores.core.data         5942                       # number of demand (read+write) MSHR hits (Count)
board.cache_hierarchy.l1dcaches.demandMshrHits::total         5942                       # number of demand (read+write) MSHR hits (Count)
board.cache_hierarchy.l1dcaches.overallMshrHits::processor.cores.core.data         5942                       # number of overall MSHR hits (Count)
board.cache_hierarchy.l1dcaches.overallMshrHits::total         5942                       # number of overall MSHR hits (Count)
board.cache_hierarchy.l1dcaches.demandMshrMisses::processor.cores.core.data       117892                       # number of demand (read+write) MSHR misses (Count)
board.cache_hierarchy.l1dcaches.demandMshrMisses::total       117892                       # number of demand (read+write) MSHR misses (Count)
board.cache_hierarchy.l1dcaches.overallMshrMisses::cache_hierarchy.l1dcaches.prefetcher         3140                       # number of overall MSHR misses (Count)
board.cache_hierarchy.l1dcaches.overallMshrMisses::processor.cores.core.data       117892                       # number of overall MSHR misses (Count)
board.cache_hierarchy.l1dcaches.overallMshrMisses::total       121032                       # number of overall MSHR misses (Count)
board.cache_hierarchy.l1dcaches.demandMshrMissLatency::processor.cores.core.data   5937922800                       # number of demand (read+write) MSHR miss ticks (Tick)
board.cache_hierarchy.l1dcaches.demandMshrMissLatency::total   5937922800                       # number of demand (read+write) MSHR miss ticks (Tick)
board.cache_hierarchy.l1dcaches.overallMshrMissLatency::cache_hierarchy.l1dcaches.prefetcher    171846274                       # number of overall MSHR miss ticks (Tick)
board.cache_hierarchy.l1dcaches.overallMshrMissLatency::processor.cores.core.data   5937922800                       # number of overall MSHR miss ticks (Tick)
board.cache_hierarchy.l1dcaches.overallMshrMissLatency::total   6109769074                       # number of overall MSHR miss ticks (Tick)
board.cache_hierarchy.l1dcaches.demandMshrMissRate::processor.cores.core.data     0.011054                       # mshr miss ratio for demand accesses (Ratio)
board.cache_hierarchy.l1dcaches.demandMshrMissRate::total     0.011054                       # mshr miss ratio for demand accesses (Ratio)
board.cache_hierarchy.l1dcaches.overallMshrMissRate::cache_hierarchy.l1dcaches.prefetcher          inf                       # mshr miss ratio for overall accesses (Ratio)
board.cache_hierarchy.l1dcaches.overallMshrMissRate::processor.cores.core.data     0.011054                       # mshr miss ratio for overall accesses (Ratio)
board.cache_hierarchy.l1dcaches.overallMshrMissRate::total     0.011349                       # mshr miss ratio for overall accesses (Ratio)
board.cache_hierarchy.l1dcaches.demandAvgMshrMissLatency::processor.cores.core.data 50367.478709                       # average overall mshr miss latency ((Tick/Count))
board.cache_hierarchy.l1dcaches.demandAvgMshrMissLatency::total 50367.478709                       # average overall mshr miss latency ((Tick/Count))
board.cache_hierarchy.l1dcaches.overallAvgMshrMissLatency::cache_hierarchy.l1dcaches.prefetcher 54728.112739                       # average overall mshr miss latency ((Tick/Count))
board.cache_hierarchy.l1dcaches.overallAvgMshrMissLatency::processor.cores.core.data 50367.478709                       # average overall mshr miss latency ((Tick/Count))
board.cache_hierarchy.l1dcaches.overallAvgMshrMissLatency::total 50480.609046                       # average overall mshr miss latency ((Tick/Count))
board.cache_hierarchy.l1dcaches.replacements        84170                       # number of replacements (Count)
board.cache_hierarchy.l1dcaches.CleanInvalidReq.missLatency::processor.cores.core.data    278389332                       # number of CleanInvalidReq miss ticks (Tick)
board.cache_hierarchy.l1dcaches.CleanInvalidReq.missLatency::total    278389332                       # number of CleanInvalidReq miss ticks (Tick)
board.cache_hierarchy.l1dcaches.CleanInvalidReq.avgMissLatency::processor.cores.core.data          inf                       # average CleanInvalidReq miss latency ((Tick/Count))
board.cache_hierarchy.l1dcaches.CleanInvalidReq.avgMissLatency::total          inf                       # average CleanInvalidReq miss latency ((Tick/Count))
board.cache_hierarchy.l1dcaches.CleanInvalidReq.mshrMisses::processor.cores.core.data       822888                       # number of CleanInvalidReq MSHR misses (Count)
board.cache_hierarchy.l1dcaches.CleanInvalidReq.mshrMisses::total       822888                       # number of CleanInvalidReq MSHR misses (Count)
board.cache_hierarchy.l1dcaches.CleanInvalidReq.mshrMissLatency::processor.cores.core.data   6028477821                       # number of CleanInvalidReq MSHR miss ticks (Tick)
board.cache_hierarchy.l1dcaches.CleanInvalidReq.mshrMissLatency::total   6028477821                       # number of CleanInvalidReq MSHR miss ticks (Tick)
board.cache_hierarchy.l1dcaches.CleanInvalidReq.mshrMissRate::processor.cores.core.data          inf                       # mshr miss rate for CleanInvalidReq accesses (Ratio)
board.cache_hierarchy.l1dcaches.CleanInvalidReq.mshrMissRate::total          inf                       # mshr miss rate for CleanInvalidReq accesses (Ratio)
board.cache_hierarchy.l1dcaches.CleanInvalidReq.avgMshrMissLatency::processor.cores.core.data  7326.000405                       # average CleanInvalidReq mshr miss latency ((Tick/Count))
board.cache_hierarchy.l1dcaches.CleanInvalidReq.avgMshrMissLatency::total  7326.000405                       # average CleanInvalidReq mshr miss latency ((Tick/Count))
board.cache_hierarchy.l1dcaches.HardPFReq.mshrMisses::cache_hierarchy.l1dcaches.prefetcher         3140                       # number of HardPFReq MSHR misses (Count)
board.cache_hierarchy.l1dcaches.HardPFReq.mshrMisses::total         3140                       # number of HardPFReq MSHR misses (Count)
board.cache_hierarchy.l1dcaches.HardPFReq.mshrMissLatency::cache_hierarchy.l1dcaches.prefetcher    171846274                       # number of HardPFReq MSHR miss ticks (Tick)
board.cache_hierarchy.l1dcaches.HardPFReq.mshrMissLatency::total    171846274                       # number of HardPFReq MSHR miss ticks (Tick)
board.cache_hierarchy.l1dcaches.HardPFReq.mshrMissRate::cache_hierarchy.l1dcaches.prefetcher          inf                       # mshr miss rate for HardPFReq accesses (Ratio)
board.cache_hierarchy.l1dcaches.HardPFReq.mshrMissRate::total          inf                       # mshr miss rate for HardPFReq accesses (Ratio)
board.cache_hierarchy.l1dcaches.HardPFReq.avgMshrMissLatency::cache_hierarchy.l1dcaches.prefetcher 54728.112739                       # average HardPFReq mshr miss latency ((Tick/Count))
board.cache_hierarchy.l1dcaches.HardPFReq.avgMshrMissLatency::total 54728.112739                       # average HardPFReq mshr miss latency ((Tick/Count))
board.cache_hierarchy.l1dcaches.ReadReq.hits::processor.cores.core.data      6414290                       # number of ReadReq hits (Count)
board.cache_hierarchy.l1dcaches.ReadReq.hits::total      6414290                       # number of ReadReq hits (Count)
board.cache_hierarchy.l1dcaches.ReadReq.misses::processor.cores.core.data       122246                       # number of ReadReq misses (Count)
board.cache_hierarchy.l1dcaches.ReadReq.misses::total       122246                       # number of ReadReq misses (Count)
board.cache_hierarchy.l1dcaches.ReadReq.missLatency::processor.cores.core.data   6137493363                       # number of ReadReq miss ticks (Tick)
board.cache_hierarchy.l1dcaches.ReadReq.missLatency::total   6137493363                       # number of ReadReq miss ticks (Tick)
board.cache_hierarchy.l1dcaches.ReadReq.accesses::processor.cores.core.data      6536536                       # number of ReadReq accesses(hits+misses) (Count)
board.cache_hierarchy.l1dcaches.ReadReq.accesses::total      6536536                       # number of ReadReq accesses(hits+misses) (Count)
board.cache_hierarchy.l1dcaches.ReadReq.missRate::processor.cores.core.data     0.018702                       # miss rate for ReadReq accesses (Ratio)
board.cache_hierarchy.l1dcaches.ReadReq.missRate::total     0.018702                       # miss rate for ReadReq accesses (Ratio)
board.cache_hierarchy.l1dcaches.ReadReq.avgMissLatency::processor.cores.core.data 50206.087422                       # average ReadReq miss latency ((Tick/Count))
board.cache_hierarchy.l1dcaches.ReadReq.avgMissLatency::total 50206.087422                       # average ReadReq miss latency ((Tick/Count))
board.cache_hierarchy.l1dcaches.ReadReq.mshrHits::processor.cores.core.data         5892                       # number of ReadReq MSHR hits (Count)
board.cache_hierarchy.l1dcaches.ReadReq.mshrHits::total         5892                       # number of ReadReq MSHR hits (Count)
board.cache_hierarchy.l1dcaches.ReadReq.mshrMisses::processor.cores.core.data       116354                       # number of ReadReq MSHR misses (Count)
board.cache_hierarchy.l1dcaches.ReadReq.mshrMisses::total       116354                       # number of ReadReq MSHR misses (Count)
board.cache_hierarchy.l1dcaches.ReadReq.mshrMissLatency::processor.cores.core.data   5881762683                       # number of ReadReq MSHR miss ticks (Tick)
board.cache_hierarchy.l1dcaches.ReadReq.mshrMissLatency::total   5881762683                       # number of ReadReq MSHR miss ticks (Tick)
board.cache_hierarchy.l1dcaches.ReadReq.mshrMissRate::processor.cores.core.data     0.017801                       # mshr miss rate for ReadReq accesses (Ratio)
board.cache_hierarchy.l1dcaches.ReadReq.mshrMissRate::total     0.017801                       # mshr miss rate for ReadReq accesses (Ratio)
board.cache_hierarchy.l1dcaches.ReadReq.avgMshrMissLatency::processor.cores.core.data 50550.584277                       # average ReadReq mshr miss latency ((Tick/Count))
board.cache_hierarchy.l1dcaches.ReadReq.avgMshrMissLatency::total 50550.584277                       # average ReadReq mshr miss latency ((Tick/Count))
board.cache_hierarchy.l1dcaches.WriteReq.hits::processor.cores.core.data      4126698                       # number of WriteReq hits (Count)
board.cache_hierarchy.l1dcaches.WriteReq.hits::total      4126698                       # number of WriteReq hits (Count)
board.cache_hierarchy.l1dcaches.WriteReq.misses::processor.cores.core.data         1588                       # number of WriteReq misses (Count)
board.cache_hierarchy.l1dcaches.WriteReq.misses::total         1588                       # number of WriteReq misses (Count)
board.cache_hierarchy.l1dcaches.WriteReq.missLatency::processor.cores.core.data     58061547                       # number of WriteReq miss ticks (Tick)
board.cache_hierarchy.l1dcaches.WriteReq.missLatency::total     58061547                       # number of WriteReq miss ticks (Tick)
board.cache_hierarchy.l1dcaches.WriteReq.accesses::processor.cores.core.data      4128286                       # number of WriteReq accesses(hits+misses) (Count)
board.cache_hierarchy.l1dcaches.WriteReq.accesses::total      4128286                       # number of WriteReq accesses(hits+misses) (Count)
board.cache_hierarchy.l1dcaches.WriteReq.missRate::processor.cores.core.data     0.000385                       # miss rate for WriteReq accesses (Ratio)
board.cache_hierarchy.l1dcaches.WriteReq.missRate::total     0.000385                       # miss rate for WriteReq accesses (Ratio)
board.cache_hierarchy.l1dcaches.WriteReq.avgMissLatency::processor.cores.core.data 36562.687028                       # average WriteReq miss latency ((Tick/Count))
board.cache_hierarchy.l1dcaches.WriteReq.avgMissLatency::total 36562.687028                       # average WriteReq miss latency ((Tick/Count))
board.cache_hierarchy.l1dcaches.WriteReq.mshrHits::processor.cores.core.data           50                       # number of WriteReq MSHR hits (Count)
board.cache_hierarchy.l1dcaches.WriteReq.mshrHits::total           50                       # number of WriteReq MSHR hits (Count)
board.cache_hierarchy.l1dcaches.WriteReq.mshrMisses::processor.cores.core.data         1538                       # number of WriteReq MSHR misses (Count)
board.cache_hierarchy.l1dcaches.WriteReq.mshrMisses::total         1538                       # number of WriteReq MSHR misses (Count)
board.cache_hierarchy.l1dcaches.WriteReq.mshrMissLatency::processor.cores.core.data     56160117                       # number of WriteReq MSHR miss ticks (Tick)
board.cache_hierarchy.l1dcaches.WriteReq.mshrMissLatency::total     56160117                       # number of WriteReq MSHR miss ticks (Tick)
board.cache_hierarchy.l1dcaches.WriteReq.mshrMissRate::processor.cores.core.data     0.000373                       # mshr miss rate for WriteReq accesses (Ratio)
board.cache_hierarchy.l1dcaches.WriteReq.mshrMissRate::total     0.000373                       # mshr miss rate for WriteReq accesses (Ratio)
board.cache_hierarchy.l1dcaches.WriteReq.avgMshrMissLatency::processor.cores.core.data 36515.030559                       # average WriteReq mshr miss latency ((Tick/Count))
board.cache_hierarchy.l1dcaches.WriteReq.avgMshrMissLatency::total 36515.030559                       # average WriteReq mshr miss latency ((Tick/Count))
board.cache_hierarchy.l1dcaches.power_state.pwrStateResidencyTicks::UNDEFINED  27628177167                       # Cumulative time (in ticks) in various power states (Tick)
board.cache_hierarchy.l1dcaches.prefetcher.demandMshrMisses       117892                       # demands not covered by prefetchs (Count)
board.cache_hierarchy.l1dcaches.prefetcher.pfIssued         7656                       # number of hwpf issued (Count)
board.cache_hierarchy.l1dcaches.prefetcher.pfUnused          951                       # number of HardPF blocks evicted w/o reference (Count)
board.cache_hierarchy.l1dcaches.prefetcher.pfUseful         1877                       # number of useful prefetch (Count)
board.cache_hierarchy.l1dcaches.prefetcher.pfUsefulButMiss            0                       # number of hit on prefetch but cache block is not in an usable state (Count)
board.cache_hierarchy.l1dcaches.prefetcher.accuracy     0.245167                       # accuracy of the prefetcher (Count)
board.cache_hierarchy.l1dcaches.prefetcher.coverage     0.015672                       # coverage brought by this prefetcher (Count)
board.cache_hierarchy.l1dcaches.prefetcher.pfHitInCache         1125                       # number of prefetches hitting in cache (Count)
board.cache_hierarchy.l1dcaches.prefetcher.pfHitInMSHR         3391                       # number of prefetches hitting in a MSHR (Count)
board.cache_hierarchy.l1dcaches.prefetcher.pfHitInWB            0                       # number of prefetches hit in the Write Buffer (Count)
board.cache_hierarchy.l1dcaches.prefetcher.pfLate         4516                       # number of late prefetches (hitting in cache, MSHR or WB) (Count)
board.cache_hierarchy.l1dcaches.prefetcher.pfIdentified        11136                       # number of prefetch candidates identified (Count)
board.cache_hierarchy.l1dcaches.prefetcher.pfBufferHit         2687                       # number of redundant prefetches already in prefetch queue (Count)
board.cache_hierarchy.l1dcaches.prefetcher.pfInCache            0                       # number of redundant prefetches already in cache/mshr dropped (Count)
board.cache_hierarchy.l1dcaches.prefetcher.pfRemovedDemand           73                       # number of prefetches dropped due to a demand for the same address (Count)
board.cache_hierarchy.l1dcaches.prefetcher.pfRemovedFull            0                       # number of prefetches dropped due to prefetch queue size (Count)
board.cache_hierarchy.l1dcaches.prefetcher.pfSpanPage         1024                       # number of prefetches that crossed the page (Count)
board.cache_hierarchy.l1dcaches.prefetcher.pfUsefulSpanPage            0                       # number of prefetches that is useful and crossed the page (Count)
board.cache_hierarchy.l1dcaches.prefetcher.power_state.pwrStateResidencyTicks::UNDEFINED  27628177167                       # Cumulative time (in ticks) in various power states (Tick)
board.cache_hierarchy.l1dcaches.tags.tagsInUse   484.539336                       # Average ticks per tags in use ((Tick/Count))
board.cache_hierarchy.l1dcaches.tags.totalRefs     10698368                       # Total number of references to valid blocks. (Count)
board.cache_hierarchy.l1dcaches.tags.sampledRefs       121030                       # Sample count of references to valid blocks. (Count)
board.cache_hierarchy.l1dcaches.tags.avgRefs    88.394349                       # Average number of references to valid blocks. ((Count/Count))
board.cache_hierarchy.l1dcaches.tags.warmupTick       134865                       # The tick when the warmup percentage was hit. (Tick)
board.cache_hierarchy.l1dcaches.tags.occupancies::cache_hierarchy.l1dcaches.prefetcher    70.028841                       # Average occupied blocks per tick, per requestor ((Count/Tick))
board.cache_hierarchy.l1dcaches.tags.occupancies::processor.cores.core.data   414.510495                       # Average occupied blocks per tick, per requestor ((Count/Tick))
board.cache_hierarchy.l1dcaches.tags.avgOccs::cache_hierarchy.l1dcaches.prefetcher     0.136775                       # Average percentage of cache occupancy ((Ratio/Tick))
board.cache_hierarchy.l1dcaches.tags.avgOccs::processor.cores.core.data     0.809591                       # Average percentage of cache occupancy ((Ratio/Tick))
board.cache_hierarchy.l1dcaches.tags.avgOccs::total     0.946366                       # Average percentage of cache occupancy ((Ratio/Tick))
board.cache_hierarchy.l1dcaches.tags.occupanciesTaskId::1022           63                       # Occupied blocks per task id (Count)
board.cache_hierarchy.l1dcaches.tags.occupanciesTaskId::1024          449                       # Occupied blocks per task id (Count)
board.cache_hierarchy.l1dcaches.tags.ageTaskId_1022::4           63                       # Occupied blocks per task id, per block age (Count)
board.cache_hierarchy.l1dcaches.tags.ageTaskId_1024::0           97                       # Occupied blocks per task id, per block age (Count)
board.cache_hierarchy.l1dcaches.tags.ageTaskId_1024::1            2                       # Occupied blocks per task id, per block age (Count)
board.cache_hierarchy.l1dcaches.tags.ageTaskId_1024::4          350                       # Occupied blocks per task id, per block age (Count)
board.cache_hierarchy.l1dcaches.tags.ratioOccsTaskId::1022     0.123047                       # Ratio of occupied blocks and all blocks, per task id (Ratio)
board.cache_hierarchy.l1dcaches.tags.ratioOccsTaskId::1024     0.876953                       # Ratio of occupied blocks and all blocks, per task id (Ratio)
board.cache_hierarchy.l1dcaches.tags.tagAccesses     92022710                       # Number of tag accesses (Count)
board.cache_hierarchy.l1dcaches.tags.dataAccesses     92022710                       # Number of data accesses (Count)
board.cache_hierarchy.l1dcaches.tags.power_state.pwrStateResidencyTicks::UNDEFINED  27628177167                       # Cumulative time (in ticks) in various power states (Tick)
board.cache_hierarchy.l1icaches.demandHits::processor.cores.core.inst      4753646                       # number of demand (read+write) hits (Count)
board.cache_hierarchy.l1icaches.demandHits::total      4753646                       # number of demand (read+write) hits (Count)
board.cache_hierarchy.l1icaches.overallHits::processor.cores.core.inst      4753646                       # number of overall hits (Count)
board.cache_hierarchy.l1icaches.overallHits::total      4753646                       # number of overall hits (Count)
board.cache_hierarchy.l1icaches.demandMisses::processor.cores.core.inst         1707                       # number of demand (read+write) misses (Count)
board.cache_hierarchy.l1icaches.demandMisses::total         1707                       # number of demand (read+write) misses (Count)
board.cache_hierarchy.l1icaches.overallMisses::processor.cores.core.inst         1707                       # number of overall misses (Count)
board.cache_hierarchy.l1icaches.overallMisses::total         1707                       # number of overall misses (Count)
board.cache_hierarchy.l1icaches.demandMissLatency::processor.cores.core.inst     89586324                       # number of demand (read+write) miss ticks (Tick)
board.cache_hierarchy.l1icaches.demandMissLatency::total     89586324                       # number of demand (read+write) miss ticks (Tick)
board.cache_hierarchy.l1icaches.overallMissLatency::processor.cores.core.inst     89586324                       # number of overall miss ticks (Tick)
board.cache_hierarchy.l1icaches.overallMissLatency::total     89586324                       # number of overall miss ticks (Tick)
board.cache_hierarchy.l1icaches.demandAccesses::processor.cores.core.inst      4755353                       # number of demand (read+write) accesses (Count)
board.cache_hierarchy.l1icaches.demandAccesses::total      4755353                       # number of demand (read+write) accesses (Count)
board.cache_hierarchy.l1icaches.overallAccesses::processor.cores.core.inst      4755353                       # number of overall (read+write) accesses (Count)
board.cache_hierarchy.l1icaches.overallAccesses::total      4755353                       # number of overall (read+write) accesses (Count)
board.cache_hierarchy.l1icaches.demandMissRate::processor.cores.core.inst     0.000359                       # miss rate for demand accesses (Ratio)
board.cache_hierarchy.l1icaches.demandMissRate::total     0.000359                       # miss rate for demand accesses (Ratio)
board.cache_hierarchy.l1icaches.overallMissRate::processor.cores.core.inst     0.000359                       # miss rate for overall accesses (Ratio)
board.cache_hierarchy.l1icaches.overallMissRate::total     0.000359                       # miss rate for overall accesses (Ratio)
board.cache_hierarchy.l1icaches.demandAvgMissLatency::processor.cores.core.inst 52481.736380                       # average overall miss latency in ticks ((Tick/Count))
board.cache_hierarchy.l1icaches.demandAvgMissLatency::total 52481.736380                       # average overall miss latency in ticks ((Tick/Count))
board.cache_hierarchy.l1icaches.overallAvgMissLatency::processor.cores.core.inst 52481.736380                       # average overall miss latency ((Tick/Count))
board.cache_hierarchy.l1icaches.overallAvgMissLatency::total 52481.736380                       # average overall miss latency ((Tick/Count))
board.cache_hierarchy.l1icaches.blockedCycles::no_mshrs            0                       # number of cycles access was blocked (Cycle)
board.cache_hierarchy.l1icaches.blockedCycles::no_targets            0                       # number of cycles access was blocked (Cycle)
board.cache_hierarchy.l1icaches.blockedCauses::no_mshrs            0                       # number of times access was blocked (Count)
board.cache_hierarchy.l1icaches.blockedCauses::no_targets            0                       # number of times access was blocked (Count)
board.cache_hierarchy.l1icaches.avgBlocked::no_mshrs          nan                       # average number of cycles each access was blocked ((Cycle/Count))
board.cache_hierarchy.l1icaches.avgBlocked::no_targets          nan                       # average number of cycles each access was blocked ((Cycle/Count))
board.cache_hierarchy.l1icaches.writebacks::writebacks          766                       # number of writebacks (Count)
board.cache_hierarchy.l1icaches.writebacks::total          766                       # number of writebacks (Count)
board.cache_hierarchy.l1icaches.demandMshrHits::processor.cores.core.inst          426                       # number of demand (read+write) MSHR hits (Count)
board.cache_hierarchy.l1icaches.demandMshrHits::total          426                       # number of demand (read+write) MSHR hits (Count)
board.cache_hierarchy.l1icaches.overallMshrHits::processor.cores.core.inst          426                       # number of overall MSHR hits (Count)
board.cache_hierarchy.l1icaches.overallMshrHits::total          426                       # number of overall MSHR hits (Count)
board.cache_hierarchy.l1icaches.demandMshrMisses::processor.cores.core.inst         1281                       # number of demand (read+write) MSHR misses (Count)
board.cache_hierarchy.l1icaches.demandMshrMisses::total         1281                       # number of demand (read+write) MSHR misses (Count)
board.cache_hierarchy.l1icaches.overallMshrMisses::processor.cores.core.inst         1281                       # number of overall MSHR misses (Count)
board.cache_hierarchy.l1icaches.overallMshrMisses::total         1281                       # number of overall MSHR misses (Count)
board.cache_hierarchy.l1icaches.demandMshrMissLatency::processor.cores.core.inst     69559038                       # number of demand (read+write) MSHR miss ticks (Tick)
board.cache_hierarchy.l1icaches.demandMshrMissLatency::total     69559038                       # number of demand (read+write) MSHR miss ticks (Tick)
board.cache_hierarchy.l1icaches.overallMshrMissLatency::processor.cores.core.inst     69559038                       # number of overall MSHR miss ticks (Tick)
board.cache_hierarchy.l1icaches.overallMshrMissLatency::total     69559038                       # number of overall MSHR miss ticks (Tick)
board.cache_hierarchy.l1icaches.demandMshrMissRate::processor.cores.core.inst     0.000269                       # mshr miss ratio for demand accesses (Ratio)
board.cache_hierarchy.l1icaches.demandMshrMissRate::total     0.000269                       # mshr miss ratio for demand accesses (Ratio)
board.cache_hierarchy.l1icaches.overallMshrMissRate::processor.cores.core.inst     0.000269                       # mshr miss ratio for overall accesses (Ratio)
board.cache_hierarchy.l1icaches.overallMshrMissRate::total     0.000269                       # mshr miss ratio for overall accesses (Ratio)
board.cache_hierarchy.l1icaches.demandAvgMshrMissLatency::processor.cores.core.inst 54300.576112                       # average overall mshr miss latency ((Tick/Count))
board.cache_hierarchy.l1icaches.demandAvgMshrMissLatency::total 54300.576112                       # average overall mshr miss latency ((Tick/Count))
board.cache_hierarchy.l1icaches.overallAvgMshrMissLatency::processor.cores.core.inst 54300.576112                       # average overall mshr miss latency ((Tick/Count))
board.cache_hierarchy.l1icaches.overallAvgMshrMissLatency::total 54300.576112                       # average overall mshr miss latency ((Tick/Count))
board.cache_hierarchy.l1icaches.replacements          766                       # number of replacements (Count)
board.cache_hierarchy.l1icaches.ReadReq.hits::processor.cores.core.inst      4753646                       # number of ReadReq hits (Count)
board.cache_hierarchy.l1icaches.ReadReq.hits::total      4753646                       # number of ReadReq hits (Count)
board.cache_hierarchy.l1icaches.ReadReq.misses::processor.cores.core.inst         1707                       # number of ReadReq misses (Count)
board.cache_hierarchy.l1icaches.ReadReq.misses::total         1707                       # number of ReadReq misses (Count)
board.cache_hierarchy.l1icaches.ReadReq.missLatency::processor.cores.core.inst     89586324                       # number of ReadReq miss ticks (Tick)
board.cache_hierarchy.l1icaches.ReadReq.missLatency::total     89586324                       # number of ReadReq miss ticks (Tick)
board.cache_hierarchy.l1icaches.ReadReq.accesses::processor.cores.core.inst      4755353                       # number of ReadReq accesses(hits+misses) (Count)
board.cache_hierarchy.l1icaches.ReadReq.accesses::total      4755353                       # number of ReadReq accesses(hits+misses) (Count)
board.cache_hierarchy.l1icaches.ReadReq.missRate::processor.cores.core.inst     0.000359                       # miss rate for ReadReq accesses (Ratio)
board.cache_hierarchy.l1icaches.ReadReq.missRate::total     0.000359                       # miss rate for ReadReq accesses (Ratio)
board.cache_hierarchy.l1icaches.ReadReq.avgMissLatency::processor.cores.core.inst 52481.736380                       # average ReadReq miss latency ((Tick/Count))
board.cache_hierarchy.l1icaches.ReadReq.avgMissLatency::total 52481.736380                       # average ReadReq miss latency ((Tick/Count))
board.cache_hierarchy.l1icaches.ReadReq.mshrHits::processor.cores.core.inst          426                       # number of ReadReq MSHR hits (Count)
board.cache_hierarchy.l1icaches.ReadReq.mshrHits::total          426                       # number of ReadReq MSHR hits (Count)
board.cache_hierarchy.l1icaches.ReadReq.mshrMisses::processor.cores.core.inst         1281                       # number of ReadReq MSHR misses (Count)
board.cache_hierarchy.l1icaches.ReadReq.mshrMisses::total         1281                       # number of ReadReq MSHR misses (Count)
board.cache_hierarchy.l1icaches.ReadReq.mshrMissLatency::processor.cores.core.inst     69559038                       # number of ReadReq MSHR miss ticks (Tick)
board.cache_hierarchy.l1icaches.ReadReq.mshrMissLatency::total     69559038                       # number of ReadReq MSHR miss ticks (Tick)
board.cache_hierarchy.l1icaches.ReadReq.mshrMissRate::processor.cores.core.inst     0.000269                       # mshr miss rate for ReadReq accesses (Ratio)
board.cache_hierarchy.l1icaches.ReadReq.mshrMissRate::total     0.000269                       # mshr miss rate for ReadReq accesses (Ratio)
board.cache_hierarchy.l1icaches.ReadReq.avgMshrMissLatency::processor.cores.core.inst 54300.576112                       # average ReadReq mshr miss latency ((Tick/Count))
board.cache_hierarchy.l1icaches.ReadReq.avgMshrMissLatency::total 54300.576112                       # average ReadReq mshr miss latency ((Tick/Count))
board.cache_hierarchy.l1icaches.power_state.pwrStateResidencyTicks::UNDEFINED  27628177167                       # Cumulative time (in ticks) in various power states (Tick)
board.cache_hierarchy.l1icaches.prefetcher.demandMshrMisses         1281                       # demands not covered by prefetchs (Count)
board.cache_hierarchy.l1icaches.prefetcher.pfIssued            0                       # number of hwpf issued (Count)
board.cache_hierarchy.l1icaches.prefetcher.pfUseful            0                       # number of useful prefetch (Count)
board.cache_hierarchy.l1icaches.prefetcher.pfUsefulButMiss            0                       # number of hit on prefetch but cache block is not in an usable state (Count)
board.cache_hierarchy.l1icaches.prefetcher.accuracy          nan                       # accuracy of the prefetcher (Count)
board.cache_hierarchy.l1icaches.prefetcher.coverage            0                       # coverage brought by this prefetcher (Count)
board.cache_hierarchy.l1icaches.prefetcher.pfHitInCache            0                       # number of prefetches hitting in cache (Count)
board.cache_hierarchy.l1icaches.prefetcher.pfHitInMSHR            0                       # number of prefetches hitting in a MSHR (Count)
board.cache_hierarchy.l1icaches.prefetcher.pfHitInWB            0                       # number of prefetches hit in the Write Buffer (Count)
board.cache_hierarchy.l1icaches.prefetcher.pfLate            0                       # number of late prefetches (hitting in cache, MSHR or WB) (Count)
board.cache_hierarchy.l1icaches.prefetcher.pfIdentified            0                       # number of prefetch candidates identified (Count)
board.cache_hierarchy.l1icaches.prefetcher.pfBufferHit            0                       # number of redundant prefetches already in prefetch queue (Count)
board.cache_hierarchy.l1icaches.prefetcher.pfInCache            0                       # number of redundant prefetches already in cache/mshr dropped (Count)
board.cache_hierarchy.l1icaches.prefetcher.pfRemovedDemand            0                       # number of prefetches dropped due to a demand for the same address (Count)
board.cache_hierarchy.l1icaches.prefetcher.pfRemovedFull            0                       # number of prefetches dropped due to prefetch queue size (Count)
board.cache_hierarchy.l1icaches.prefetcher.pfSpanPage            0                       # number of prefetches that crossed the page (Count)
board.cache_hierarchy.l1icaches.prefetcher.pfUsefulSpanPage            0                       # number of prefetches that is useful and crossed the page (Count)
board.cache_hierarchy.l1icaches.prefetcher.power_state.pwrStateResidencyTicks::UNDEFINED  27628177167                       # Cumulative time (in ticks) in various power states (Tick)
board.cache_hierarchy.l1icaches.tags.tagsInUse   511.697368                       # Average ticks per tags in use ((Tick/Count))
board.cache_hierarchy.l1icaches.tags.totalRefs      4754926                       # Total number of references to valid blocks. (Count)
board.cache_hierarchy.l1icaches.tags.sampledRefs         1280                       # Sample count of references to valid blocks. (Count)
board.cache_hierarchy.l1icaches.tags.avgRefs  3714.785937                       # Average number of references to valid blocks. ((Count/Count))
board.cache_hierarchy.l1icaches.tags.warmupTick        70263                       # The tick when the warmup percentage was hit. (Tick)
board.cache_hierarchy.l1icaches.tags.occupancies::processor.cores.core.inst   511.697368                       # Average occupied blocks per tick, per requestor ((Count/Tick))
board.cache_hierarchy.l1icaches.tags.avgOccs::processor.cores.core.inst     0.999409                       # Average percentage of cache occupancy ((Ratio/Tick))
board.cache_hierarchy.l1icaches.tags.avgOccs::total     0.999409                       # Average percentage of cache occupancy ((Ratio/Tick))
board.cache_hierarchy.l1icaches.tags.occupanciesTaskId::1024          512                       # Occupied blocks per task id (Count)
board.cache_hierarchy.l1icaches.tags.ageTaskId_1024::0           90                       # Occupied blocks per task id, per block age (Count)
board.cache_hierarchy.l1icaches.tags.ageTaskId_1024::3            1                       # Occupied blocks per task id, per block age (Count)
board.cache_hierarchy.l1icaches.tags.ageTaskId_1024::4          421                       # Occupied blocks per task id, per block age (Count)
board.cache_hierarchy.l1icaches.tags.ratioOccsTaskId::1024            1                       # Ratio of occupied blocks and all blocks, per task id (Ratio)
board.cache_hierarchy.l1icaches.tags.tagAccesses     38044104                       # Number of tag accesses (Count)
board.cache_hierarchy.l1icaches.tags.dataAccesses     38044104                       # Number of data accesses (Count)
board.cache_hierarchy.l1icaches.tags.power_state.pwrStateResidencyTicks::UNDEFINED  27628177167                       # Cumulative time (in ticks) in various power states (Tick)
board.cache_hierarchy.l2buses.transDist::ReadResp       120774                       # Transaction distribution (Count)
board.cache_hierarchy.l2buses.transDist::WritebackDirty         4546                       # Transaction distribution (Count)
board.cache_hierarchy.l2buses.transDist::WritebackClean          766                       # Transaction distribution (Count)
board.cache_hierarchy.l2buses.transDist::WriteClean         1928                       # Transaction distribution (Count)
board.cache_hierarchy.l2buses.transDist::CleanEvict        81848                       # Transaction distribution (Count)
board.cache_hierarchy.l2buses.transDist::HardPFReq         2268                       # Transaction distribution (Count)
board.cache_hierarchy.l2buses.transDist::UpgradeReq            2                       # Transaction distribution (Count)
board.cache_hierarchy.l2buses.transDist::UpgradeResp            2                       # Transaction distribution (Count)
board.cache_hierarchy.l2buses.transDist::ReadExReq         1536                       # Transaction distribution (Count)
board.cache_hierarchy.l2buses.transDist::ReadExResp         1536                       # Transaction distribution (Count)
board.cache_hierarchy.l2buses.transDist::ReadSharedReq       120775                       # Transaction distribution (Count)
board.cache_hierarchy.l2buses.transDist::CleanInvalidReq       822888                       # Transaction distribution (Count)
board.cache_hierarchy.l2buses.transDist::CleanInvalidResp       822888                       # Transaction distribution (Count)
board.cache_hierarchy.l2buses.pktCount_board.cache_hierarchy.l1icaches.mem_side_port::board.cache_hierarchy.l2caches.cpu_side_port         3326                       # Packet count per connected requestor and responder (Count)
board.cache_hierarchy.l2buses.pktCount_board.cache_hierarchy.l1dcaches.mem_side_port::board.cache_hierarchy.l2caches.cpu_side_port      1972008                       # Packet count per connected requestor and responder (Count)
board.cache_hierarchy.l2buses.pktCount::total      1975334                       # Packet count per connected requestor and responder (Count)
board.cache_hierarchy.l2buses.pktSize_board.cache_hierarchy.l1icaches.mem_side_port::board.cache_hierarchy.l2caches.cpu_side_port       130880                       # Cumulative packet size per connected requestor and responder (Byte)
board.cache_hierarchy.l2buses.pktSize_board.cache_hierarchy.l1dcaches.mem_side_port::board.cache_hierarchy.l2caches.cpu_side_port      8003392                       # Cumulative packet size per connected requestor and responder (Byte)
board.cache_hierarchy.l2buses.pktSize::total      8134272                       # Cumulative packet size per connected requestor and responder (Byte)
board.cache_hierarchy.l2buses.snoops             6423                       # Total snoops (Count)
board.cache_hierarchy.l2buses.snoopTraffic       156928                       # Total snoop traffic (Byte)
board.cache_hierarchy.l2buses.snoopFanout::samples       951628                       # Request fanout histogram (Count)
board.cache_hierarchy.l2buses.snoopFanout::mean     0.002540                       # Request fanout histogram (Count)
board.cache_hierarchy.l2buses.snoopFanout::stdev     0.050333                       # Request fanout histogram (Count)
board.cache_hierarchy.l2buses.snoopFanout::underflows            0      0.00%      0.00% # Request fanout histogram (Count)
board.cache_hierarchy.l2buses.snoopFanout::0       949211     99.75%     99.75% # Request fanout histogram (Count)
board.cache_hierarchy.l2buses.snoopFanout::1         2417      0.25%    100.00% # Request fanout histogram (Count)
board.cache_hierarchy.l2buses.snoopFanout::2            0      0.00%    100.00% # Request fanout histogram (Count)
board.cache_hierarchy.l2buses.snoopFanout::3            0      0.00%    100.00% # Request fanout histogram (Count)
board.cache_hierarchy.l2buses.snoopFanout::4            0      0.00%    100.00% # Request fanout histogram (Count)
board.cache_hierarchy.l2buses.snoopFanout::overflows            0      0.00%    100.00% # Request fanout histogram (Count)
board.cache_hierarchy.l2buses.snoopFanout::min_value            0                       # Request fanout histogram (Count)
board.cache_hierarchy.l2buses.snoopFanout::max_value            1                       # Request fanout histogram (Count)
board.cache_hierarchy.l2buses.snoopFanout::total       951628                       # Request fanout histogram (Count)
board.cache_hierarchy.l2buses.power_state.pwrStateResidencyTicks::UNDEFINED  27628177167                       # Cumulative time (in ticks) in various power states (Tick)
board.cache_hierarchy.l2buses.reqLayer0.occupancy    346293850                       # Layer occupancy (ticks) (Tick)
board.cache_hierarchy.l2buses.reqLayer0.utilization          0.0                       # Layer utilization (Ratio)
board.cache_hierarchy.l2buses.respLayer0.occupancy      1279052                       # Layer occupancy (ticks) (Tick)
board.cache_hierarchy.l2buses.respLayer0.utilization          0.0                       # Layer utilization (Ratio)
board.cache_hierarchy.l2buses.respLayer1.occupancy    394931672                       # Layer occupancy (ticks) (Tick)
board.cache_hierarchy.l2buses.respLayer1.utilization          0.0                       # Layer utilization (Ratio)
board.cache_hierarchy.l2buses.snoop_filter.totRequests      1030146                       # Total number of requests made to the snoop filter. (Count)
board.cache_hierarchy.l2buses.snoop_filter.hitSingleRequests       121287                       # Number of requests hitting in the snoop filter with a single holder of the requested data. (Count)
board.cache_hierarchy.l2buses.snoop_filter.hitMultiRequests           10                       # Number of requests hitting in the snoop filter with multiple (>1) holders of the requested data. (Count)
board.cache_hierarchy.l2buses.snoop_filter.totSnoops         2406                       # Total number of snoops made to the snoop filter. (Count)
board.cache_hierarchy.l2buses.snoop_filter.hitSingleSnoops         2406                       # Number of snoops hitting in the snoop filter with a single holder of the requested data. (Count)
board.cache_hierarchy.l2buses.snoop_filter.hitMultiSnoops            0                       # Number of snoops hitting in the snoop filter with multiple (>1) holders of the requested data. (Count)
board.cache_hierarchy.l2caches.demandHits::cache_hierarchy.l1dcaches.prefetcher          561                       # number of demand (read+write) hits (Count)
board.cache_hierarchy.l2caches.demandHits::processor.cores.core.inst           51                       # number of demand (read+write) hits (Count)
board.cache_hierarchy.l2caches.demandHits::processor.cores.core.data         3387                       # number of demand (read+write) hits (Count)
board.cache_hierarchy.l2caches.demandHits::total         3999                       # number of demand (read+write) hits (Count)
board.cache_hierarchy.l2caches.overallHits::cache_hierarchy.l1dcaches.prefetcher          561                       # number of overall hits (Count)
board.cache_hierarchy.l2caches.overallHits::processor.cores.core.inst           51                       # number of overall hits (Count)
board.cache_hierarchy.l2caches.overallHits::processor.cores.core.data         3387                       # number of overall hits (Count)
board.cache_hierarchy.l2caches.overallHits::total         3999                       # number of overall hits (Count)
board.cache_hierarchy.l2caches.demandMisses::cache_hierarchy.l1dcaches.prefetcher         2579                       # number of demand (read+write) misses (Count)
board.cache_hierarchy.l2caches.demandMisses::processor.cores.core.inst         1229                       # number of demand (read+write) misses (Count)
board.cache_hierarchy.l2caches.demandMisses::processor.cores.core.data       114502                       # number of demand (read+write) misses (Count)
board.cache_hierarchy.l2caches.demandMisses::total       118310                       # number of demand (read+write) misses (Count)
board.cache_hierarchy.l2caches.overallMisses::cache_hierarchy.l1dcaches.prefetcher         2579                       # number of overall misses (Count)
board.cache_hierarchy.l2caches.overallMisses::processor.cores.core.inst         1229                       # number of overall misses (Count)
board.cache_hierarchy.l2caches.overallMisses::processor.cores.core.data       114502                       # number of overall misses (Count)
board.cache_hierarchy.l2caches.overallMisses::total       118310                       # number of overall misses (Count)
board.cache_hierarchy.l2caches.demandMissLatency::cache_hierarchy.l1dcaches.prefetcher    166881564                       # number of demand (read+write) miss ticks (Tick)
board.cache_hierarchy.l2caches.demandMissLatency::processor.cores.core.inst     68462469                       # number of demand (read+write) miss ticks (Tick)
board.cache_hierarchy.l2caches.demandMissLatency::processor.cores.core.data   5846883264                       # number of demand (read+write) miss ticks (Tick)
board.cache_hierarchy.l2caches.demandMissLatency::total   6082227297                       # number of demand (read+write) miss ticks (Tick)
board.cache_hierarchy.l2caches.overallMissLatency::cache_hierarchy.l1dcaches.prefetcher    166881564                       # number of overall miss ticks (Tick)
board.cache_hierarchy.l2caches.overallMissLatency::processor.cores.core.inst     68462469                       # number of overall miss ticks (Tick)
board.cache_hierarchy.l2caches.overallMissLatency::processor.cores.core.data   5846883264                       # number of overall miss ticks (Tick)
board.cache_hierarchy.l2caches.overallMissLatency::total   6082227297                       # number of overall miss ticks (Tick)
board.cache_hierarchy.l2caches.demandAccesses::cache_hierarchy.l1dcaches.prefetcher         3140                       # number of demand (read+write) accesses (Count)
board.cache_hierarchy.l2caches.demandAccesses::processor.cores.core.inst         1280                       # number of demand (read+write) accesses (Count)
board.cache_hierarchy.l2caches.demandAccesses::processor.cores.core.data       117889                       # number of demand (read+write) accesses (Count)
board.cache_hierarchy.l2caches.demandAccesses::total       122309                       # number of demand (read+write) accesses (Count)
board.cache_hierarchy.l2caches.overallAccesses::cache_hierarchy.l1dcaches.prefetcher         3140                       # number of overall (read+write) accesses (Count)
board.cache_hierarchy.l2caches.overallAccesses::processor.cores.core.inst         1280                       # number of overall (read+write) accesses (Count)
board.cache_hierarchy.l2caches.overallAccesses::processor.cores.core.data       117889                       # number of overall (read+write) accesses (Count)
board.cache_hierarchy.l2caches.overallAccesses::total       122309                       # number of overall (read+write) accesses (Count)
board.cache_hierarchy.l2caches.demandMissRate::cache_hierarchy.l1dcaches.prefetcher     0.821338                       # miss rate for demand accesses (Ratio)
board.cache_hierarchy.l2caches.demandMissRate::processor.cores.core.inst     0.960156                       # miss rate for demand accesses (Ratio)
board.cache_hierarchy.l2caches.demandMissRate::processor.cores.core.data     0.971270                       # miss rate for demand accesses (Ratio)
board.cache_hierarchy.l2caches.demandMissRate::total     0.967304                       # miss rate for demand accesses (Ratio)
board.cache_hierarchy.l2caches.overallMissRate::cache_hierarchy.l1dcaches.prefetcher     0.821338                       # miss rate for overall accesses (Ratio)
board.cache_hierarchy.l2caches.overallMissRate::processor.cores.core.inst     0.960156                       # miss rate for overall accesses (Ratio)
board.cache_hierarchy.l2caches.overallMissRate::processor.cores.core.data     0.971270                       # miss rate for overall accesses (Ratio)
board.cache_hierarchy.l2caches.overallMissRate::total     0.967304                       # miss rate for overall accesses (Ratio)
board.cache_hierarchy.l2caches.demandAvgMissLatency::cache_hierarchy.l1dcaches.prefetcher 64707.857309                       # average overall miss latency in ticks ((Tick/Count))
board.cache_hierarchy.l2caches.demandAvgMissLatency::processor.cores.core.inst 55705.833198                       # average overall miss latency in ticks ((Tick/Count))
board.cache_hierarchy.l2caches.demandAvgMissLatency::processor.cores.core.data 51063.590715                       # average overall miss latency in ticks ((Tick/Count))
board.cache_hierarchy.l2caches.demandAvgMissLatency::total 51409.240952                       # average overall miss latency in ticks ((Tick/Count))
board.cache_hierarchy.l2caches.overallAvgMissLatency::cache_hierarchy.l1dcaches.prefetcher 64707.857309                       # average overall miss latency ((Tick/Count))
board.cache_hierarchy.l2caches.overallAvgMissLatency::processor.cores.core.inst 55705.833198                       # average overall miss latency ((Tick/Count))
board.cache_hierarchy.l2caches.overallAvgMissLatency::processor.cores.core.data 51063.590715                       # average overall miss latency ((Tick/Count))
board.cache_hierarchy.l2caches.overallAvgMissLatency::total 51409.240952                       # average overall miss latency ((Tick/Count))
board.cache_hierarchy.l2caches.blockedCycles::no_mshrs          196                       # number of cycles access was blocked (Cycle)
board.cache_hierarchy.l2caches.blockedCycles::no_targets            0                       # number of cycles access was blocked (Cycle)
board.cache_hierarchy.l2caches.blockedCauses::no_mshrs           10                       # number of times access was blocked (Count)
board.cache_hierarchy.l2caches.blockedCauses::no_targets            0                       # number of times access was blocked (Count)
board.cache_hierarchy.l2caches.avgBlocked::no_mshrs    19.600000                       # average number of cycles each access was blocked ((Cycle/Count))
board.cache_hierarchy.l2caches.avgBlocked::no_targets          nan                       # average number of cycles each access was blocked ((Cycle/Count))
board.cache_hierarchy.l2caches.writebacks::writebacks          522                       # number of writebacks (Count)
board.cache_hierarchy.l2caches.writebacks::total          522                       # number of writebacks (Count)
board.cache_hierarchy.l2caches.demandMshrHits::cache_hierarchy.l1dcaches.prefetcher          123                       # number of demand (read+write) MSHR hits (Count)
board.cache_hierarchy.l2caches.demandMshrHits::total          123                       # number of demand (read+write) MSHR hits (Count)
board.cache_hierarchy.l2caches.overallMshrHits::cache_hierarchy.l1dcaches.prefetcher          123                       # number of overall MSHR hits (Count)
board.cache_hierarchy.l2caches.overallMshrHits::total          123                       # number of overall MSHR hits (Count)
board.cache_hierarchy.l2caches.demandMshrMisses::cache_hierarchy.l1dcaches.prefetcher         2456                       # number of demand (read+write) MSHR misses (Count)
board.cache_hierarchy.l2caches.demandMshrMisses::processor.cores.core.inst         1229                       # number of demand (read+write) MSHR misses (Count)
board.cache_hierarchy.l2caches.demandMshrMisses::processor.cores.core.data       114502                       # number of demand (read+write) MSHR misses (Count)
board.cache_hierarchy.l2caches.demandMshrMisses::total       118187                       # number of demand (read+write) MSHR misses (Count)
board.cache_hierarchy.l2caches.overallMshrMisses::cache_hierarchy.l1dcaches.prefetcher         2456                       # number of overall MSHR misses (Count)
board.cache_hierarchy.l2caches.overallMshrMisses::cache_hierarchy.l2caches.prefetcher         1300                       # number of overall MSHR misses (Count)
board.cache_hierarchy.l2caches.overallMshrMisses::processor.cores.core.inst         1229                       # number of overall MSHR misses (Count)
board.cache_hierarchy.l2caches.overallMshrMisses::processor.cores.core.data       114502                       # number of overall MSHR misses (Count)
board.cache_hierarchy.l2caches.overallMshrMisses::total       119487                       # number of overall MSHR misses (Count)
board.cache_hierarchy.l2caches.demandMshrMissLatency::cache_hierarchy.l1dcaches.prefetcher    160470717                       # number of demand (read+write) MSHR miss ticks (Tick)
board.cache_hierarchy.l2caches.demandMshrMissLatency::processor.cores.core.inst     68053545                       # number of demand (read+write) MSHR miss ticks (Tick)
board.cache_hierarchy.l2caches.demandMshrMissLatency::processor.cores.core.data   5808754098                       # number of demand (read+write) MSHR miss ticks (Tick)
board.cache_hierarchy.l2caches.demandMshrMissLatency::total   6037278360                       # number of demand (read+write) MSHR miss ticks (Tick)
board.cache_hierarchy.l2caches.overallMshrMissLatency::cache_hierarchy.l1dcaches.prefetcher    160470717                       # number of overall MSHR miss ticks (Tick)
board.cache_hierarchy.l2caches.overallMshrMissLatency::cache_hierarchy.l2caches.prefetcher     83174551                       # number of overall MSHR miss ticks (Tick)
board.cache_hierarchy.l2caches.overallMshrMissLatency::processor.cores.core.inst     68053545                       # number of overall MSHR miss ticks (Tick)
board.cache_hierarchy.l2caches.overallMshrMissLatency::processor.cores.core.data   5808754098                       # number of overall MSHR miss ticks (Tick)
board.cache_hierarchy.l2caches.overallMshrMissLatency::total   6120452911                       # number of overall MSHR miss ticks (Tick)
board.cache_hierarchy.l2caches.demandMshrMissRate::cache_hierarchy.l1dcaches.prefetcher     0.782166                       # mshr miss ratio for demand accesses (Ratio)
board.cache_hierarchy.l2caches.demandMshrMissRate::processor.cores.core.inst     0.960156                       # mshr miss ratio for demand accesses (Ratio)
board.cache_hierarchy.l2caches.demandMshrMissRate::processor.cores.core.data     0.971270                       # mshr miss ratio for demand accesses (Ratio)
board.cache_hierarchy.l2caches.demandMshrMissRate::total     0.966298                       # mshr miss ratio for demand accesses (Ratio)
board.cache_hierarchy.l2caches.overallMshrMissRate::cache_hierarchy.l1dcaches.prefetcher     0.782166                       # mshr miss ratio for overall accesses (Ratio)
board.cache_hierarchy.l2caches.overallMshrMissRate::cache_hierarchy.l2caches.prefetcher          inf                       # mshr miss ratio for overall accesses (Ratio)
board.cache_hierarchy.l2caches.overallMshrMissRate::processor.cores.core.inst     0.960156                       # mshr miss ratio for overall accesses (Ratio)
board.cache_hierarchy.l2caches.overallMshrMissRate::processor.cores.core.data     0.971270                       # mshr miss ratio for overall accesses (Ratio)
board.cache_hierarchy.l2caches.overallMshrMissRate::total     0.976927                       # mshr miss ratio for overall accesses (Ratio)
board.cache_hierarchy.l2caches.demandAvgMshrMissLatency::cache_hierarchy.l1dcaches.prefetcher 65338.239821                       # average overall mshr miss latency ((Tick/Count))
board.cache_hierarchy.l2caches.demandAvgMshrMissLatency::processor.cores.core.inst 55373.104150                       # average overall mshr miss latency ((Tick/Count))
board.cache_hierarchy.l2caches.demandAvgMshrMissLatency::processor.cores.core.data 50730.590715                       # average overall mshr miss latency ((Tick/Count))
board.cache_hierarchy.l2caches.demandAvgMshrMissLatency::total 51082.423278                       # average overall mshr miss latency ((Tick/Count))
board.cache_hierarchy.l2caches.overallAvgMshrMissLatency::cache_hierarchy.l1dcaches.prefetcher 65338.239821                       # average overall mshr miss latency ((Tick/Count))
board.cache_hierarchy.l2caches.overallAvgMshrMissLatency::cache_hierarchy.l2caches.prefetcher 63980.423846                       # average overall mshr miss latency ((Tick/Count))
board.cache_hierarchy.l2caches.overallAvgMshrMissLatency::processor.cores.core.inst 55373.104150                       # average overall mshr miss latency ((Tick/Count))
board.cache_hierarchy.l2caches.overallAvgMshrMissLatency::processor.cores.core.data 50730.590715                       # average overall mshr miss latency ((Tick/Count))
board.cache_hierarchy.l2caches.overallAvgMshrMissLatency::total 51222.751521                       # average overall mshr miss latency ((Tick/Count))
board.cache_hierarchy.l2caches.replacements         2224                       # number of replacements (Count)
board.cache_hierarchy.l2caches.CleanInvalidReq.missLatency::processor.cores.core.data    765420480                       # number of CleanInvalidReq miss ticks (Tick)
board.cache_hierarchy.l2caches.CleanInvalidReq.missLatency::total    765420480                       # number of CleanInvalidReq miss ticks (Tick)
board.cache_hierarchy.l2caches.CleanInvalidReq.avgMissLatency::processor.cores.core.data          inf                       # average CleanInvalidReq miss latency ((Tick/Count))
board.cache_hierarchy.l2caches.CleanInvalidReq.avgMissLatency::total          inf                       # average CleanInvalidReq miss latency ((Tick/Count))
board.cache_hierarchy.l2caches.CleanInvalidReq.mshrMisses::processor.cores.core.data       822888                       # number of CleanInvalidReq MSHR misses (Count)
board.cache_hierarchy.l2caches.CleanInvalidReq.mshrMisses::total       822888                       # number of CleanInvalidReq MSHR misses (Count)
board.cache_hierarchy.l2caches.CleanInvalidReq.mshrMissLatency::processor.cores.core.data   5206412709                       # number of CleanInvalidReq MSHR miss ticks (Tick)
board.cache_hierarchy.l2caches.CleanInvalidReq.mshrMissLatency::total   5206412709                       # number of CleanInvalidReq MSHR miss ticks (Tick)
board.cache_hierarchy.l2caches.CleanInvalidReq.mshrMissRate::processor.cores.core.data          inf                       # mshr miss rate for CleanInvalidReq accesses (Ratio)
board.cache_hierarchy.l2caches.CleanInvalidReq.mshrMissRate::total          inf                       # mshr miss rate for CleanInvalidReq accesses (Ratio)
board.cache_hierarchy.l2caches.CleanInvalidReq.avgMshrMissLatency::processor.cores.core.data  6327.000405                       # average CleanInvalidReq mshr miss latency ((Tick/Count))
board.cache_hierarchy.l2caches.CleanInvalidReq.avgMshrMissLatency::total  6327.000405                       # average CleanInvalidReq mshr miss latency ((Tick/Count))
board.cache_hierarchy.l2caches.HardPFReq.mshrMisses::cache_hierarchy.l2caches.prefetcher         1300                       # number of HardPFReq MSHR misses (Count)
board.cache_hierarchy.l2caches.HardPFReq.mshrMisses::total         1300                       # number of HardPFReq MSHR misses (Count)
board.cache_hierarchy.l2caches.HardPFReq.mshrMissLatency::cache_hierarchy.l2caches.prefetcher     83174551                       # number of HardPFReq MSHR miss ticks (Tick)
board.cache_hierarchy.l2caches.HardPFReq.mshrMissLatency::total     83174551                       # number of HardPFReq MSHR miss ticks (Tick)
board.cache_hierarchy.l2caches.HardPFReq.mshrMissRate::cache_hierarchy.l2caches.prefetcher          inf                       # mshr miss rate for HardPFReq accesses (Ratio)
board.cache_hierarchy.l2caches.HardPFReq.mshrMissRate::total          inf                       # mshr miss rate for HardPFReq accesses (Ratio)
board.cache_hierarchy.l2caches.HardPFReq.avgMshrMissLatency::cache_hierarchy.l2caches.prefetcher 63980.423846                       # average HardPFReq mshr miss latency ((Tick/Count))
board.cache_hierarchy.l2caches.HardPFReq.avgMshrMissLatency::total 63980.423846                       # average HardPFReq mshr miss latency ((Tick/Count))
board.cache_hierarchy.l2caches.ReadExReq.hits::processor.cores.core.data          651                       # number of ReadExReq hits (Count)
board.cache_hierarchy.l2caches.ReadExReq.hits::total          651                       # number of ReadExReq hits (Count)
board.cache_hierarchy.l2caches.ReadExReq.misses::processor.cores.core.data          885                       # number of ReadExReq misses (Count)
board.cache_hierarchy.l2caches.ReadExReq.misses::total          885                       # number of ReadExReq misses (Count)
board.cache_hierarchy.l2caches.ReadExReq.missLatency::processor.cores.core.data     52725555                       # number of ReadExReq miss ticks (Tick)
board.cache_hierarchy.l2caches.ReadExReq.missLatency::total     52725555                       # number of ReadExReq miss ticks (Tick)
board.cache_hierarchy.l2caches.ReadExReq.accesses::processor.cores.core.data         1536                       # number of ReadExReq accesses(hits+misses) (Count)
board.cache_hierarchy.l2caches.ReadExReq.accesses::total         1536                       # number of ReadExReq accesses(hits+misses) (Count)
board.cache_hierarchy.l2caches.ReadExReq.missRate::processor.cores.core.data     0.576172                       # miss rate for ReadExReq accesses (Ratio)
board.cache_hierarchy.l2caches.ReadExReq.missRate::total     0.576172                       # miss rate for ReadExReq accesses (Ratio)
board.cache_hierarchy.l2caches.ReadExReq.avgMissLatency::processor.cores.core.data 59576.898305                       # average ReadExReq miss latency ((Tick/Count))
board.cache_hierarchy.l2caches.ReadExReq.avgMissLatency::total 59576.898305                       # average ReadExReq miss latency ((Tick/Count))
board.cache_hierarchy.l2caches.ReadExReq.mshrMisses::processor.cores.core.data          885                       # number of ReadExReq MSHR misses (Count)
board.cache_hierarchy.l2caches.ReadExReq.mshrMisses::total          885                       # number of ReadExReq MSHR misses (Count)
board.cache_hierarchy.l2caches.ReadExReq.mshrMissLatency::processor.cores.core.data     52430850                       # number of ReadExReq MSHR miss ticks (Tick)
board.cache_hierarchy.l2caches.ReadExReq.mshrMissLatency::total     52430850                       # number of ReadExReq MSHR miss ticks (Tick)
board.cache_hierarchy.l2caches.ReadExReq.mshrMissRate::processor.cores.core.data     0.576172                       # mshr miss rate for ReadExReq accesses (Ratio)
board.cache_hierarchy.l2caches.ReadExReq.mshrMissRate::total     0.576172                       # mshr miss rate for ReadExReq accesses (Ratio)
board.cache_hierarchy.l2caches.ReadExReq.avgMshrMissLatency::processor.cores.core.data 59243.898305                       # average ReadExReq mshr miss latency ((Tick/Count))
board.cache_hierarchy.l2caches.ReadExReq.avgMshrMissLatency::total 59243.898305                       # average ReadExReq mshr miss latency ((Tick/Count))
board.cache_hierarchy.l2caches.ReadSharedReq.hits::cache_hierarchy.l1dcaches.prefetcher          561                       # number of ReadSharedReq hits (Count)
board.cache_hierarchy.l2caches.ReadSharedReq.hits::processor.cores.core.inst           51                       # number of ReadSharedReq hits (Count)
board.cache_hierarchy.l2caches.ReadSharedReq.hits::processor.cores.core.data         2736                       # number of ReadSharedReq hits (Count)
board.cache_hierarchy.l2caches.ReadSharedReq.hits::total         3348                       # number of ReadSharedReq hits (Count)
board.cache_hierarchy.l2caches.ReadSharedReq.misses::cache_hierarchy.l1dcaches.prefetcher         2579                       # number of ReadSharedReq misses (Count)
board.cache_hierarchy.l2caches.ReadSharedReq.misses::processor.cores.core.inst         1229                       # number of ReadSharedReq misses (Count)
board.cache_hierarchy.l2caches.ReadSharedReq.misses::processor.cores.core.data       113617                       # number of ReadSharedReq misses (Count)
board.cache_hierarchy.l2caches.ReadSharedReq.misses::total       117425                       # number of ReadSharedReq misses (Count)
board.cache_hierarchy.l2caches.ReadSharedReq.missLatency::cache_hierarchy.l1dcaches.prefetcher    166881564                       # number of ReadSharedReq miss ticks (Tick)
board.cache_hierarchy.l2caches.ReadSharedReq.missLatency::processor.cores.core.inst     68462469                       # number of ReadSharedReq miss ticks (Tick)
board.cache_hierarchy.l2caches.ReadSharedReq.missLatency::processor.cores.core.data   5794157709                       # number of ReadSharedReq miss ticks (Tick)
board.cache_hierarchy.l2caches.ReadSharedReq.missLatency::total   6029501742                       # number of ReadSharedReq miss ticks (Tick)
board.cache_hierarchy.l2caches.ReadSharedReq.accesses::cache_hierarchy.l1dcaches.prefetcher         3140                       # number of ReadSharedReq accesses(hits+misses) (Count)
board.cache_hierarchy.l2caches.ReadSharedReq.accesses::processor.cores.core.inst         1280                       # number of ReadSharedReq accesses(hits+misses) (Count)
board.cache_hierarchy.l2caches.ReadSharedReq.accesses::processor.cores.core.data       116353                       # number of ReadSharedReq accesses(hits+misses) (Count)
board.cache_hierarchy.l2caches.ReadSharedReq.accesses::total       120773                       # number of ReadSharedReq accesses(hits+misses) (Count)
board.cache_hierarchy.l2caches.ReadSharedReq.missRate::cache_hierarchy.l1dcaches.prefetcher     0.821338                       # miss rate for ReadSharedReq accesses (Ratio)
board.cache_hierarchy.l2caches.ReadSharedReq.missRate::processor.cores.core.inst     0.960156                       # miss rate for ReadSharedReq accesses (Ratio)
board.cache_hierarchy.l2caches.ReadSharedReq.missRate::processor.cores.core.data     0.976485                       # miss rate for ReadSharedReq accesses (Ratio)
board.cache_hierarchy.l2caches.ReadSharedReq.missRate::total     0.972279                       # miss rate for ReadSharedReq accesses (Ratio)
board.cache_hierarchy.l2caches.ReadSharedReq.avgMissLatency::cache_hierarchy.l1dcaches.prefetcher 64707.857309                       # average ReadSharedReq miss latency ((Tick/Count))
board.cache_hierarchy.l2caches.ReadSharedReq.avgMissLatency::processor.cores.core.inst 55705.833198                       # average ReadSharedReq miss latency ((Tick/Count))
board.cache_hierarchy.l2caches.ReadSharedReq.avgMissLatency::processor.cores.core.data 50997.277775                       # average ReadSharedReq miss latency ((Tick/Count))
board.cache_hierarchy.l2caches.ReadSharedReq.avgMissLatency::total 51347.683560                       # average ReadSharedReq miss latency ((Tick/Count))
board.cache_hierarchy.l2caches.ReadSharedReq.mshrHits::cache_hierarchy.l1dcaches.prefetcher          123                       # number of ReadSharedReq MSHR hits (Count)
board.cache_hierarchy.l2caches.ReadSharedReq.mshrHits::total          123                       # number of ReadSharedReq MSHR hits (Count)
board.cache_hierarchy.l2caches.ReadSharedReq.mshrMisses::cache_hierarchy.l1dcaches.prefetcher         2456                       # number of ReadSharedReq MSHR misses (Count)
board.cache_hierarchy.l2caches.ReadSharedReq.mshrMisses::processor.cores.core.inst         1229                       # number of ReadSharedReq MSHR misses (Count)
board.cache_hierarchy.l2caches.ReadSharedReq.mshrMisses::processor.cores.core.data       113617                       # number of ReadSharedReq MSHR misses (Count)
board.cache_hierarchy.l2caches.ReadSharedReq.mshrMisses::total       117302                       # number of ReadSharedReq MSHR misses (Count)
board.cache_hierarchy.l2caches.ReadSharedReq.mshrMissLatency::cache_hierarchy.l1dcaches.prefetcher    160470717                       # number of ReadSharedReq MSHR miss ticks (Tick)
board.cache_hierarchy.l2caches.ReadSharedReq.mshrMissLatency::processor.cores.core.inst     68053545                       # number of ReadSharedReq MSHR miss ticks (Tick)
board.cache_hierarchy.l2caches.ReadSharedReq.mshrMissLatency::processor.cores.core.data   5756323248                       # number of ReadSharedReq MSHR miss ticks (Tick)
board.cache_hierarchy.l2caches.ReadSharedReq.mshrMissLatency::total   5984847510                       # number of ReadSharedReq MSHR miss ticks (Tick)
board.cache_hierarchy.l2caches.ReadSharedReq.mshrMissRate::cache_hierarchy.l1dcaches.prefetcher     0.782166                       # mshr miss rate for ReadSharedReq accesses (Ratio)
board.cache_hierarchy.l2caches.ReadSharedReq.mshrMissRate::processor.cores.core.inst     0.960156                       # mshr miss rate for ReadSharedReq accesses (Ratio)
board.cache_hierarchy.l2caches.ReadSharedReq.mshrMissRate::processor.cores.core.data     0.976485                       # mshr miss rate for ReadSharedReq accesses (Ratio)
[...]
board.processor.cores.core.fetch.pendingTrapStallCycles         3330                       # Number of stall cycles due to pending traps (Cycle)
board.processor.cores.core.fetch.cacheLines      4755353                       # Number of cache lines fetched (Count)
board.processor.cores.core.fetch.icacheSquashes          837                       # Number of outstanding Icache misses that were squashed (Count)
board.processor.cores.core.fetch.nisnDist::samples     82864578                       # Number of instructions fetched each cycle (Total) (Count)
board.processor.cores.core.fetch.nisnDist::mean     1.952284                       # Number of instructions fetched each cycle (Total) (Count)
board.processor.cores.core.fetch.nisnDist::stdev     3.085847                       # Number of instructions fetched each cycle (Total) (Count)
board.processor.cores.core.fetch.nisnDist::underflows            0      0.00%      0.00% # Number of instructions fetched each cycle (Total) (Count)
board.processor.cores.core.fetch.nisnDist::0     55724572     67.25%     67.25% # Number of instructions fetched each cycle (Total) (Count)
board.processor.cores.core.fetch.nisnDist::1      1098936      1.33%     68.57% # Number of instructions fetched each cycle (Total) (Count)
board.processor.cores.core.fetch.nisnDist::2       862841      1.04%     69.62% # Number of instructions fetched each cycle (Total) (Count)
board.processor.cores.core.fetch.nisnDist::3      1616748      1.95%     71.57% # Number of instructions fetched each cycle (Total) (Count)
board.processor.cores.core.fetch.nisnDist::4      6990194      8.44%     80.00% # Number of instructions fetched each cycle (Total) (Count)
board.processor.cores.core.fetch.nisnDist::5      1182184      1.43%     81.43% # Number of instructions fetched each cycle (Total) (Count)
board.processor.cores.core.fetch.nisnDist::6      1383142      1.67%     83.10% # Number of instructions fetched each cycle (Total) (Count)
board.processor.cores.core.fetch.nisnDist::7       117870      0.14%     83.24% # Number of instructions fetched each cycle (Total) (Count)
board.processor.cores.core.fetch.nisnDist::8     13888091     16.76%    100.00% # Number of instructions fetched each cycle (Total) (Count)
board.processor.cores.core.fetch.nisnDist::overflows            0      0.00%    100.00% # Number of instructions fetched each cycle (Total) (Count)
board.processor.cores.core.fetch.nisnDist::min_value            0                       # Number of instructions fetched each cycle (Total) (Count)
board.processor.cores.core.fetch.nisnDist::max_value            8                       # Number of instructions fetched each cycle (Total) (Count)
board.processor.cores.core.fetch.nisnDist::total     82864578                       # Number of instructions fetched each cycle (Total) (Count)
board.processor.cores.core.fetchStats0.numInsts     98239554                       # Number of instructions fetched (thread level) (Count)
board.processor.cores.core.fetchStats0.numOps            0                       # Number of ops (including micro ops) fetched (thread level) (Count)
board.processor.cores.core.fetchStats0.fetchRate     1.184073                       # Number of inst fetches per cycle ((Count/Cycle))
board.processor.cores.core.fetchStats0.numBranches      9258018                       # Number of branches fetched (Count)
board.processor.cores.core.fetchStats0.branchRate     0.111586                       # Number of branch fetches per cycle (Ratio)
board.processor.cores.core.fetchStats0.icacheStallCycles        64244                       # ICache total stall cycles (Cycle)
board.processor.cores.core.fetchStats0.numFetchSuspends            0                       # Number of times Execute suspended instruction fetching (Count)
board.processor.cores.core.iew.idleCycles            0                       # Number of cycles IEW is idle (Cycle)
board.processor.cores.core.iew.squashCycles       908020                       # Number of cycles IEW is squashing (Cycle)
board.processor.cores.core.iew.blockCycles     28265054                       # Number of cycles IEW is blocking (Cycle)
board.processor.cores.core.iew.unblockCycles      1661635                       # Number of cycles IEW is unblocking (Cycle)
board.processor.cores.core.iew.dispatchedInsts    117535839                       # Number of instructions dispatched to IQ (Count)
board.processor.cores.core.iew.dispSquashedInsts          209                       # Number of squashed instructions skipped by dispatch (Count)
board.processor.cores.core.iew.dispLoadInsts     23674189                       # Number of dispatched load instructions (Count)
board.processor.cores.core.iew.dispStoreInsts     15108082                       # Number of dispatched store instructions (Count)
board.processor.cores.core.iew.dispNonSpecInsts           37                       # Number of dispatched non-speculative instructions (Count)
board.processor.cores.core.iew.iqFullEvents       823941                       # Number of times the IQ has become full, causing a stall (Count)
board.processor.cores.core.iew.lsqFullEvents         2368                       # Number of times the LSQ has become full, causing a stall (Count)
board.processor.cores.core.iew.memOrderViolationEvents       899357                       # Number of memory order violations (Count)
board.processor.cores.core.iew.predictedTakenIncorrect        17522                       # Number of branches that were predicted taken incorrectly (Count)
board.processor.cores.core.iew.predictedNotTakenIncorrect         5136                       # Number of branches that were predicted not taken incorrectly (Count)
board.processor.cores.core.iew.branchMispredicts        22658                       # Number of branch mispredicts detected at execute (Count)
board.processor.cores.core.iew.instsToCommit     71731666                       # Cumulative count of insts sent to commit (Count)
board.processor.cores.core.iew.writebackCount     71652775                       # Cumulative count of insts written-back (Count)
board.processor.cores.core.iew.producerInst     50612404                       # Number of instructions producing a value (Count)
board.processor.cores.core.iew.consumerInst     65435676                       # Number of instructions consuming a value (Count)
board.processor.cores.core.iew.wbRate        0.863625                       # Insts written-back per cycle ((Count/Cycle))
board.processor.cores.core.iew.wbFanout      0.773468                       # Average fanout of values written-back ((Count/Count))
board.processor.cores.core.interrupts.clk_domain.clock         5328                       # Clock period in ticks (Tick)
board.processor.cores.core.lsq0.forwLoads      4529255                       # Number of loads that had data forwarded from stores (Count)
board.processor.cores.core.lsq0.squashedLoads     15352592                       # Number of loads squashed (Count)
board.processor.cores.core.lsq0.ignoredResponses           50                       # Number of memory responses ignored because the instruction is squashed (Count)
board.processor.cores.core.lsq0.memOrderViolation       899357                       # Number of memory ordering violations (Count)
board.processor.cores.core.lsq0.squashedStores     10156912                       # Number of stores squashed (Count)
board.processor.cores.core.lsq0.rescheduledLoads           25                       # Number of loads that were rescheduled (Count)
board.processor.cores.core.lsq0.blockedByCache            1                       # Number of times an access to memory failed due to the cache being blocked (Count)
board.processor.cores.core.lsq0.loadToUse::samples      8321597                       # Distribution of cycle latency between the first time a load is issued and its completion (Unspecified)
board.processor.cores.core.lsq0.loadToUse::mean     4.225156                       # Distribution of cycle latency between the first time a load is issued and its completion (Unspecified)
board.processor.cores.core.lsq0.loadToUse::stdev    20.212630                       # Distribution of cycle latency between the first time a load is issued and its completion (Unspecified)
board.processor.cores.core.lsq0.loadToUse::0-9      8202330     98.57%     98.57% # Distribution of cycle latency between the first time a load is issued and its completion (Unspecified)
board.processor.cores.core.lsq0.loadToUse::10-19         2913      0.04%     98.60% # Distribution of cycle latency between the first time a load is issued and its completion (Unspecified)
board.processor.cores.core.lsq0.loadToUse::20-29          417      0.01%     98.61% # Distribution of cycle latency between the first time a load is issued and its completion (Unspecified)
board.processor.cores.core.lsq0.loadToUse::30-39          191      0.00%     98.61% # Distribution of cycle latency between the first time a load is issued and its completion (Unspecified)
board.processor.cores.core.lsq0.loadToUse::40-49           64      0.00%     98.61% # Distribution of cycle latency between the first time a load is issued and its completion (Unspecified)
board.processor.cores.core.lsq0.loadToUse::50-59         1246      0.01%     98.62% # Distribution of cycle latency between the first time a load is issued and its completion (Unspecified)
board.processor.cores.core.lsq0.loadToUse::60-69           63      0.00%     98.63% # Distribution of cycle latency between the first time a load is issued and its completion (Unspecified)
board.processor.cores.core.lsq0.loadToUse::70-79           78      0.00%     98.63% # Distribution of cycle latency between the first time a load is issued and its completion (Unspecified)
board.processor.cores.core.lsq0.loadToUse::80-89          191      0.00%     98.63% # Distribution of cycle latency between the first time a load is issued and its completion (Unspecified)
board.processor.cores.core.lsq0.loadToUse::90-99          160      0.00%     98.63% # Distribution of cycle latency between the first time a load is issued and its completion (Unspecified)
board.processor.cores.core.lsq0.loadToUse::100-109          162      0.00%     98.63% # Distribution of cycle latency between the first time a load is issued and its completion (Unspecified)
board.processor.cores.core.lsq0.loadToUse::110-119          195      0.00%     98.64% # Distribution of cycle latency between the first time a load is issued and its completion (Unspecified)
board.processor.cores.core.lsq0.loadToUse::120-129          202      0.00%     98.64% # Distribution of cycle latency between the first time a load is issued and its completion (Unspecified)
board.processor.cores.core.lsq0.loadToUse::130-139          339      0.00%     98.64% # Distribution of cycle latency between the first time a load is issued and its completion (Unspecified)
board.processor.cores.core.lsq0.loadToUse::140-149        91210      1.10%     99.74% # Distribution of cycle latency between the first time a load is issued and its completion (Unspecified)
board.processor.cores.core.lsq0.loadToUse::150-159          144      0.00%     99.74% # Distribution of cycle latency between the first time a load is issued and its completion (Unspecified)
board.processor.cores.core.lsq0.loadToUse::160-169           38      0.00%     99.74% # Distribution of cycle latency between the first time a load is issued and its completion (Unspecified)
board.processor.cores.core.lsq0.loadToUse::170-179          124      0.00%     99.74% # Distribution of cycle latency between the first time a load is issued and its completion (Unspecified)
board.processor.cores.core.lsq0.loadToUse::180-189        19653      0.24%     99.98% # Distribution of cycle latency between the first time a load is issued and its completion (Unspecified)
board.processor.cores.core.lsq0.loadToUse::190-199           68      0.00%     99.98% # Distribution of cycle latency between the first time a load is issued and its completion (Unspecified)
board.processor.cores.core.lsq0.loadToUse::200-209           25      0.00%     99.98% # Distribution of cycle latency between the first time a load is issued and its completion (Unspecified)
board.processor.cores.core.lsq0.loadToUse::210-219           53      0.00%     99.98% # Distribution of cycle latency between the first time a load is issued and its completion (Unspecified)
board.processor.cores.core.lsq0.loadToUse::220-229          144      0.00%     99.98% # Distribution of cycle latency between the first time a load is issued and its completion (Unspecified)
board.processor.cores.core.lsq0.loadToUse::230-239           45      0.00%     99.98% # Distribution of cycle latency between the first time a load is issued and its completion (Unspecified)
board.processor.cores.core.lsq0.loadToUse::240-249           29      0.00%     99.98% # Distribution of cycle latency between the first time a load is issued and its completion (Unspecified)
board.processor.cores.core.lsq0.loadToUse::250-259            6      0.00%     99.98% # Distribution of cycle latency between the first time a load is issued and its completion (Unspecified)
board.processor.cores.core.lsq0.loadToUse::260-269           21      0.00%     99.98% # Distribution of cycle latency between the first time a load is issued and its completion (Unspecified)
board.processor.cores.core.lsq0.loadToUse::270-279           23      0.00%     99.98% # Distribution of cycle latency between the first time a load is issued and its completion (Unspecified)
board.processor.cores.core.lsq0.loadToUse::280-289           16      0.00%     99.98% # Distribution of cycle latency between the first time a load is issued and its completion (Unspecified)
board.processor.cores.core.lsq0.loadToUse::290-299           24      0.00%     99.98% # Distribution of cycle latency between the first time a load is issued and its completion (Unspecified)
board.processor.cores.core.lsq0.loadToUse::overflows         1423      0.02%    100.00% # Distribution of cycle latency between the first time a load is issued and its completion (Unspecified)
board.processor.cores.core.lsq0.loadToUse::min_value            2                       # Distribution of cycle latency between the first time a load is issued and its completion (Unspecified)
board.processor.cores.core.lsq0.loadToUse::max_value         1006                       # Distribution of cycle latency between the first time a load is issued and its completion (Unspecified)
board.processor.cores.core.lsq0.loadToUse::total      8321597                       # Distribution of cycle latency between the first time a load is issued and its completion (Unspecified)
board.processor.cores.core.mmu.dtb.rdAccesses     11066089                       # TLB accesses on read requests (Count)
board.processor.cores.core.mmu.dtb.wrAccesses      5804975                       # TLB accesses on write requests (Count)
board.processor.cores.core.mmu.dtb.rdMisses          396                       # TLB misses on read requests (Count)
board.processor.cores.core.mmu.dtb.wrMisses          155                       # TLB misses on write requests (Count)
board.processor.cores.core.mmu.dtb.walker.power_state.pwrStateResidencyTicks::UNDEFINED  27628177167                       # Cumulative time (in ticks) in various power states (Tick)
board.processor.cores.core.mmu.itb.rdAccesses            0                       # TLB accesses on read requests (Count)
board.processor.cores.core.mmu.itb.wrAccesses      4755876                       # TLB accesses on write requests (Count)
board.processor.cores.core.mmu.itb.rdMisses            0                       # TLB misses on read requests (Count)
board.processor.cores.core.mmu.itb.wrMisses          652                       # TLB misses on write requests (Count)
board.processor.cores.core.mmu.itb.walker.power_state.pwrStateResidencyTicks::UNDEFINED  27628177167                       # Cumulative time (in ticks) in various power states (Tick)
board.processor.cores.core.power_state.pwrStateResidencyTicks::ON  27628177167                       # Cumulative time (in ticks) in various power states (Tick)
board.processor.cores.core.rename.squashCycles       908020                       # Number of cycles rename is squashing (Cycle)
board.processor.cores.core.rename.idleCycles      5260990                       # Number of cycles rename is idle (Cycle)
board.processor.cores.core.rename.blockCycles     33122278                       # Number of cycles rename is blocking (Cycle)
board.processor.cores.core.rename.serializeStallCycles     19695737                       # count of cycles rename stalled for serializing inst (Cycle)
board.processor.cores.core.rename.runCycles     12710258                       # Number of cycles rename is running (Cycle)
board.processor.cores.core.rename.unblockCycles     11167295                       # Number of cycles rename is unblocking (Cycle)
board.processor.cores.core.rename.renamedInsts    118543213                       # Number of instructions processed by rename (Count)
board.processor.cores.core.rename.ROBFullEvents         4362                       # Number of times rename has blocked due to ROB full (Count)
board.processor.cores.core.rename.IQFullEvents      9377470                       # Number of times rename has blocked due to IQ full (Count)
board.processor.cores.core.rename.LQFullEvents          789                       # Number of times rename has blocked due to LQ full (Count)
board.processor.cores.core.rename.SQFullEvents        95773                       # Number of times rename has blocked due to SQ full (Count)
board.processor.cores.core.rename.renamedOperands    205628324                       # Number of destination operands rename has renamed (Count)
board.processor.cores.core.rename.lookups    389959559                       # Number of register rename lookups that rename has made (Count)
board.processor.cores.core.rename.intLookups    132117857                       # Number of integer rename lookups (Count)
board.processor.cores.core.rename.fpLookups        20153                       # Number of floating rename lookups (Count)
board.processor.cores.core.rename.committedMaps     72764034                       # Number of HB maps that are committed (Count)
board.processor.cores.core.rename.undoneMaps    132864281                       # Number of HB maps that are undone due to squashing (Count)
board.processor.cores.core.rename.serializing       254860                       # count of serializing insts renamed (Count)
board.processor.cores.core.rename.tempSerializing           61                       # count of temporary serializing insts renamed (Count)
board.processor.cores.core.rename.skidInsts     26681967                       # count of insts added to the skid buffer (Count)
board.processor.cores.core.rob.reads        190538158                       # The number of ROB reads (Count)
board.processor.cores.core.rob.writes       244556183                       # The number of ROB writes (Count)
board.processor.cores.core.thread_0.numInsts     25750222                       # Number of Instructions committed (Count)
board.processor.cores.core.thread_0.numOps     42172340                       # Number of Ops committed (Count)
board.processor.cores.core.thread_0.numMemRefs            0                       # Number of Memory References (Count)
board.processor.cores.core.workload.numSyscalls           31                       # Number of system calls (Count)
board.workload.inst.arm                             0                       # number of arm instructions executed (Count)
board.workload.inst.quiesce                         0                       # number of quiesce instructions executed (Count)

---------- End Simulation Statistics   ----------
